PET.pdb
 OpenBabel01292117133D

182189  0  0  0  0  0  0  0  0999 V2000
  -11.2330    1.3560   -2.9460 C   0  0  0  0  0  0  0  0  0  0  0  0
  -17.7660   -5.0250   -3.6840 C   0  0  0  0  0  0  0  0  0  0  0  0
    4.5330    0.9870    2.8970 C   0  0  0  0  0  0  0  0  0  0  0  0
  -15.7850   -4.0580   -2.8870 C   0  0  0  0  0  0  0  0  0  0  0  0
    3.6290    2.4980   -0.8140 C   0  0  0  0  0  0  0  0  0  0  0  0
  -19.1380   -2.2820   -7.5470 O   0  0  0  0  0  0  0  0  0  0  0  0
  -19.7200   -4.4290   -6.7140 C   0  0  0  0  0  0  0  0  0  0  0  0
    4.0300    2.8520   -2.9980 O   0  0  0  0  0  0  0  0  0  0  0  0
    5.5710    0.3850    3.0940 O   0  0  0  0  0  0  0  0  0  0  0  0
    2.7800    2.6220    0.2240 C   0  0  0  0  0  0  0  0  0  0  0  0
    3.2850    2.9850   -2.0460 C   0  0  0  0  0  0  0  0  0  0  0  0
  -18.5440   -3.0990  -16.6750 C   0  0  0  0  0  0  0  0  0  0  0  0
  -19.6690   -5.8900   -4.5030 O   0  0  0  0  0  0  0  0  0  0  0  0
  -14.8490   -4.6930   -0.7510 C   0  0  0  0  0  0  0  0  0  0  0  0
  -16.7340   -4.1760   -3.8310 C   0  0  0  0  0  0  0  0  0  0  0  0
  -17.7960   -5.7540   -2.5560 C   0  0  0  0  0  0  0  0  0  0  0  0
    6.6420   -0.0730    5.8870 C   0  0  0  0  0  0  0  0  0  0  0  0
   15.8690    3.2160    4.6120 C   0  0  0  0  0  0  0  0  0  0  0  0
   10.5290   -0.0600    4.4570 C   0  0  0  0  0  0  0  0  0  0  0  0
   16.4700    1.7930    6.3930 C   0  0  0  0  0  0  0  0  0  0  0  0
    9.7590    1.0450    4.4880 C   0  0  0  0  0  0  0  0  0  0  0  0
    3.7360    0.3200    5.0770 C   0  0  0  0  0  0  0  0  0  0  0  0
    5.9040    1.0900    5.8960 O   0  0  0  0  0  0  0  0  0  0  0  0
   16.1460    4.1160    3.8430 O   0  0  0  0  0  0  0  0  0  0  0  0
   19.4960    1.5200    8.4140 C   0  0  0  0  0  0  0  0  0  0  0  0
   20.5590    2.1230    8.4400 O   0  0  0  0  0  0  0  0  0  0  0  0
    4.2530    1.4970    1.6580 C   0  0  0  0  0  0  0  0  0  0  0  0
   -0.0050    3.7260   -3.4380 C   0  0  0  0  0  0  0  0  0  0  0  0
    6.1310   -1.0980    6.2980 O   0  0  0  0  0  0  0  0  0  0  0  0
   12.3730   -1.1960    3.9510 O   0  0  0  0  0  0  0  0  0  0  0  0
   11.8280   -0.1030    4.0040 C   0  0  0  0  0  0  0  0  0  0  0  0
   25.9480   -4.9220    9.1650 O   0  0  0  0  0  0  0  0  0  0  0  0
    8.4970    1.0410    4.9500 C   0  0  0  0  0  0  0  0  0  0  0  0
   22.3610   -3.1900    9.8700 C   0  0  0  0  0  0  0  0  0  0  0  0
    7.9240   -0.0850    5.4100 C   0  0  0  0  0  0  0  0  0  0  0  0
   19.4350    0.5280    9.3720 O   0  0  0  0  0  0  0  0  0  0  0  0
   21.7420   -3.4130   11.0450 C   0  0  0  0  0  0  0  0  0  0  0  0
   23.5500   -4.7700   11.6570 C   0  0  0  0  0  0  0  0  0  0  0  0
   23.5520   -3.7460    9.5940 C   0  0  0  0  0  0  0  0  0  0  0  0
   18.3860   -0.3650    9.6010 C   0  0  0  0  0  0  0  0  0  0  0  0
   18.7840   -1.2920   10.7460 C   0  0  0  0  0  0  0  0  0  0  0  0
   19.9360   -2.0080   10.3810 O   0  0  0  0  0  0  0  0  0  0  0  0
   27.2460   -6.4890   10.8580 C   0  0  0  0  0  0  0  0  0  0  0  0
   -1.6330    2.5950   -1.9570 C   0  0  0  0  0  0  0  0  0  0  0  0
   -4.9920    5.0220   -2.0350 C   0  0  0  0  0  0  0  0  0  0  0  0
   -6.9700    5.6960   -1.2270 O   0  0  0  0  0  0  0  0  0  0  0  0
   12.0510    2.5140    4.7360 H   0  0  0  0  0  0  0  0  0  0  0  0
   11.7110    2.6200    2.9100 H   0  0  0  0  0  0  0  0  0  0  0  0
   13.5620    4.1250    3.6060 H   0  0  0  0  0  0  0  0  0  0  0  0
   21.9120   -2.5450    9.0970 H   0  0  0  0  0  0  0  0  0  0  0  0
   23.9990   -5.4150   12.4310 H   0  0  0  0  0  0  0  0  0  0  0  0
   23.9960   -3.5150    8.6110 H   0  0  0  0  0  0  0  0  0  0  0  0
    5.5510    1.7450   -1.3880 H   0  0  0  0  0  0  0  0  0  0  0  0
    6.0850    0.8840    0.7300 H   0  0  0  0  0  0  0  0  0  0  0  0
  -20.6420   -4.0310   -6.2280 H   0  0  0  0  0  0  0  0  0  0  0  0
  -19.8870   -5.4870   -7.0290 H   0  0  0  0  0  0  0  0  0  0  0  0
  -14.9950   -3.3440   -3.1380 H   0  0  0  0  0  0  0  0  0  0  0  0
  -18.4390   -4.0200   -8.3960 H   0  0  0  0  0  0  0  0  0  0  0  0
    2.6940    0.1710    5.4510 H   0  0  0  0  0  0  0  0  0  0  0  0
    1.9450    4.4650   -4.0960 H   0  0  0  0  0  0  0  0  0  0  0  0
    7.9420    1.9950    4.9360 H   0  0  0  0  0  0  0  0  0  0  0  0
   10.0930    2.0200    4.1220 H   0  0  0  0  0  0  0  0  0  0  0  0
  -11.9770    0.6710   -3.3870 H   0  0  0  0  0  0  0  0  0  0  0  0
  -19.0090   -3.2070  -10.2470 H   0  0  0  0  0  0  0  0  0  0  0  0
  -18.4940   -3.0260  -17.7850 H   0  0  0  0  0  0  0  0  0  0  0  0
  -18.7490   -2.9840  -12.5120 H   0  0  0  0  0  0  0  0  0  0  0  0
   -2.2290    4.5490   -3.7610 H   0  0  0  0  0  0  0  0  0  0  0  0
   -9.4140    7.1380   -4.2190 H   0  0  0  0  0  0  0  0  0  0  0  0
   -7.9190    7.7280   -2.2690 H   0  0  0  0  0  0  0  0  0  0  0  0
   -7.2830    8.3330   -3.8170 H   0  0  0  0  0  0  0  0  0  0  0  0
  -11.3830   -2.6990   -0.6430 H   0  0  0  0  0  0  0  0  0  0  0  0
  -14.2660   -2.1150   -1.5720 H   0  0  0  0  0  0  0  0  0  0  0  0
   -9.7100    4.4980   -3.8510 C   0  0  0  0  0  0  0  0  0  0  0  0
  -17.9880    0.2900  -14.3520 O   0  0  0  0  0  0  0  0  0  0  0  0
  -18.2260   -0.7840  -13.8340 C   0  0  0  0  0  0  0  0  0  0  0  0
  -10.9730   -0.0480   -1.0720 C   0  0  0  0  0  0  0  0  0  0  0  0
   -7.5000    7.4000   -3.2450 C   0  0  0  0  0  0  0  0  0  0  0  0
   -6.2690    6.7420   -3.0780 O   0  0  0  0  0  0  0  0  0  0  0  0
  -12.2700   -2.0350   -0.7740 C   0  0  0  0  0  0  0  0  0  0  0  0
  -13.3950   -2.8030   -1.4620 C   0  0  0  0  0  0  0  0  0  0  0  0
  -10.9290    2.4670   -3.6380 C   0  0  0  0  0  0  0  0  0  0  0  0
  -10.0340    3.3560   -3.1690 C   0  0  0  0  0  0  0  0  0  0  0  0
  -16.8360   -5.6300   -1.6240 C   0  0  0  0  0  0  0  0  0  0  0  0
  -19.3680   -3.6000   -7.9450 C   0  0  0  0  0  0  0  0  0  0  0  0
  -18.6580   -4.3750   -5.7960 O   0  0  0  0  0  0  0  0  0  0  0  0
  -15.7970   -4.7750   -1.7460 C   0  0  0  0  0  0  0  0  0  0  0  0
  -18.7970   -2.1850  -10.5740 C   0  0  0  0  0  0  0  0  0  0  0  0
  -19.8310   -3.5800  -16.3430 O   0  0  0  0  0  0  0  0  0  0  0  0
  -18.3220   -1.7440  -16.0250 C   0  0  0  0  0  0  0  0  0  0  0  0
  -18.3620   -1.8960  -14.6300 O   0  0  0  0  0  0  0  0  0  0  0  0
  -14.9600   -5.4590    0.1960 O   0  0  0  0  0  0  0  0  0  0  0  0
  -18.7290   -5.1330   -4.6510 C   0  0  0  0  0  0  0  0  0  0  0  0
    8.6670   -1.2040    5.3700 C   0  0  0  0  0  0  0  0  0  0  0  0
    3.6210    1.1080    3.9200 O   0  0  0  0  0  0  0  0  0  0  0  0
    4.5280    1.0290    6.1710 C   0  0  0  0  0  0  0  0  0  0  0  0
    9.9260   -1.1850    4.9020 C   0  0  0  0  0  0  0  0  0  0  0  0
    4.8030    1.8800   -0.5880 C   0  0  0  0  0  0  0  0  0  0  0  0
    5.1090    1.3870    0.6240 C   0  0  0  0  0  0  0  0  0  0  0  0
    3.0880    2.1330    1.4360 C   0  0  0  0  0  0  0  0  0  0  0  0
   -0.4850    2.6230   -2.7200 O   0  0  0  0  0  0  0  0  0  0  0  0
    1.5150    3.5970   -3.5430 C   0  0  0  0  0  0  0  0  0  0  0  0
    2.0580    3.5700   -2.2470 O   0  0  0  0  0  0  0  0  0  0  0  0
   25.9880   -5.9310   11.1590 O   0  0  0  0  0  0  0  0  0  0  0  0
   22.3590   -4.2150   11.9330 C   0  0  0  0  0  0  0  0  0  0  0  0
   24.1700   -4.5460   10.4830 C   0  0  0  0  0  0  0  0  0  0  0  0
   25.3850   -5.1210   10.2250 C   0  0  0  0  0  0  0  0  0  0  0  0
   16.7720    2.7960    5.5500 C   0  0  0  0  0  0  0  0  0  0  0  0
   17.9890    3.3510    5.6820 C   0  0  0  0  0  0  0  0  0  0  0  0
   18.5670    1.9130    7.4760 C   0  0  0  0  0  0  0  0  0  0  0  0
   17.3450    1.3690    7.3210 C   0  0  0  0  0  0  0  0  0  0  0  0
   12.4170    2.2890    3.7070 C   0  0  0  0  0  0  0  0  0  0  0  0
   13.7400    3.0270    3.5200 C   0  0  0  0  0  0  0  0  0  0  0  0
   18.9950   -0.6920   11.6620 H   0  0  0  0  0  0  0  0  0  0  0  0
   -2.9280    4.3730   -2.9360 C   0  0  0  0  0  0  0  0  0  0  0  0
   -1.6470    1.6790   -1.1490 O   0  0  0  0  0  0  0  0  0  0  0  0
   -8.4810    6.5510   -4.0470 C   0  0  0  0  0  0  0  0  0  0  0  0
   -6.1030    5.8200   -2.0700 C   0  0  0  0  0  0  0  0  0  0  0  0
   -4.0240    5.1510   -2.9580 C   0  0  0  0  0  0  0  0  0  0  0  0
   -4.8170    4.0740   -1.0970 C   0  0  0  0  0  0  0  0  0  0  0  0
   -3.7230    3.2940   -1.0940 C   0  0  0  0  0  0  0  0  0  0  0  0
   -8.7980    5.3860   -3.3320 O   0  0  0  0  0  0  0  0  0  0  0  0
   -2.7320    3.4210   -2.0040 C   0  0  0  0  0  0  0  0  0  0  0  0
   14.1770    2.7930    2.5210 H   0  0  0  0  0  0  0  0  0  0  0  0
   21.9140   -4.4460   12.9160 H   0  0  0  0  0  0  0  0  0  0  0  0
   18.2150   -0.9840    8.6900 H   0  0  0  0  0  0  0  0  0  0  0  0
   17.4810    0.2020    9.9250 H   0  0  0  0  0  0  0  0  0  0  0  0
   17.9570   -2.0120   10.9500 H   0  0  0  0  0  0  0  0  0  0  0  0
    1.7590    2.6520   -4.0820 H   0  0  0  0  0  0  0  0  0  0  0  0
   -0.2310    4.6670   -2.8870 H   0  0  0  0  0  0  0  0  0  0  0  0
    2.3400    2.2680    2.2360 H   0  0  0  0  0  0  0  0  0  0  0  0
    1.8030    3.1220    0.1160 H   0  0  0  0  0  0  0  0  0  0  0  0
  -20.2470   -3.6310   -8.6310 H   0  0  0  0  0  0  0  0  0  0  0  0
    4.3740    0.5470    7.1640 H   0  0  0  0  0  0  0  0  0  0  0  0
   19.8150    3.4550    6.6310 H   0  0  0  0  0  0  0  0  0  0  0  0
   15.4900    1.2870    6.3450 H   0  0  0  0  0  0  0  0  0  0  0  0
    8.2730   -2.1730    5.7210 H   0  0  0  0  0  0  0  0  0  0  0  0
    4.1080   -0.6960    4.8260 H   0  0  0  0  0  0  0  0  0  0  0  0
    4.1690    2.0790    6.2760 H   0  0  0  0  0  0  0  0  0  0  0  0
   20.5300   -2.8330   11.3060 C   0  0  0  0  0  0  0  0  0  0  0  0
   19.9720   -3.0220   12.3700 O   0  0  0  0  0  0  0  0  0  0  0  0
   14.6340    2.6190    4.5230 O   0  0  0  0  0  0  0  0  0  0  0  0
   12.6540    0.9180    3.5800 O   0  0  0  0  0  0  0  0  0  0  0  0
   18.8500    2.9190    6.6180 C   0  0  0  0  0  0  0  0  0  0  0  0
   -9.7510    1.9750   -1.2960 C   0  0  0  0  0  0  0  0  0  0  0  0
   -9.4520    3.0880   -1.9850 C   0  0  0  0  0  0  0  0  0  0  0  0
  -13.7460   -3.8720   -0.6340 O   0  0  0  0  0  0  0  0  0  0  0  0
  -11.9080   -0.9320   -1.5640 O   0  0  0  0  0  0  0  0  0  0  0  0
  -18.3750   -0.8840  -12.4770 C   0  0  0  0  0  0  0  0  0  0  0  0
  -18.4160    0.0410  -10.3280 C   0  0  0  0  0  0  0  0  0  0  0  0
  -18.6450   -2.0690  -11.9040 C   0  0  0  0  0  0  0  0  0  0  0  0
  -18.8460   -1.2060   -8.3630 C   0  0  0  0  0  0  0  0  0  0  0  0
  -18.7070   -0.1710   -7.7290 O   0  0  0  0  0  0  0  0  0  0  0  0
  -10.4440   -0.2870   -0.0030 O   0  0  0  0  0  0  0  0  0  0  0  0
  -18.6940   -1.1400   -9.7300 C   0  0  0  0  0  0  0  0  0  0  0  0
  -10.2220    4.7420   -4.9270 O   0  0  0  0  0  0  0  0  0  0  0  0
  -18.2610    0.1740  -11.6560 C   0  0  0  0  0  0  0  0  0  0  0  0
  -10.6500    1.0880   -1.7630 C   0  0  0  0  0  0  0  0  0  0  0  0
   -9.2300    1.8280   -0.3350 H   0  0  0  0  0  0  0  0  0  0  0  0
  -11.4480    2.6170   -4.6000 H   0  0  0  0  0  0  0  0  0  0  0  0
  -13.0160   -3.1910   -2.4360 H   0  0  0  0  0  0  0  0  0  0  0  0
  -12.6230   -1.6740    0.2210 H   0  0  0  0  0  0  0  0  0  0  0  0
   -8.0290    6.2700   -5.0260 H   0  0  0  0  0  0  0  0  0  0  0  0
  -19.1200   -1.0340  -16.3460 H   0  0  0  0  0  0  0  0  0  0  0  0
  -18.6050   -6.4780   -2.3560 H   0  0  0  0  0  0  0  0  0  0  0  0
  -17.3220   -1.3510  -16.3230 H   0  0  0  0  0  0  0  0  0  0  0  0
  -17.8000   -3.8500  -16.3270 H   0  0  0  0  0  0  0  0  0  0  0  0
  -19.9940   -4.4080  -16.7990 H   0  0  0  0  0  0  0  0  0  0  0  0
  -18.3020    0.9800   -9.7600 H   0  0  0  0  0  0  0  0  0  0  0  0
  -16.9700   -6.2800   -0.7430 H   0  0  0  0  0  0  0  0  0  0  0  0
  -18.0380    1.1830  -12.0430 H   0  0  0  0  0  0  0  0  0  0  0  0
  -16.6380   -3.5520   -4.7360 H   0  0  0  0  0  0  0  0  0  0  0  0
   -8.7090    3.7700   -1.5410 H   0  0  0  0  0  0  0  0  0  0  0  0
   27.5660   -7.1000   11.7310 H   0  0  0  0  0  0  0  0  0  0  0  0
   -5.5650    3.8970   -0.3060 H   0  0  0  0  0  0  0  0  0  0  0  0
   27.1690   -7.1540    9.9690 H   0  0  0  0  0  0  0  0  0  0  0  0
   27.9960   -5.6820   10.6960 H   0  0  0  0  0  0  0  0  0  0  0  0
   -3.6870    2.5490   -0.2820 H   0  0  0  0  0  0  0  0  0  0  0  0
   -4.1050    5.8960   -3.7680 H   0  0  0  0  0  0  0  0  0  0  0  0
   -0.4310    3.7190   -4.4680 H   0  0  0  0  0  0  0  0  0  0  0  0
   18.3180    4.1800    5.0320 H   0  0  0  0  0  0  0  0  0  0  0  0
   10.4390   -2.1620    4.9240 H   0  0  0  0  0  0  0  0  0  0  0  0
   16.9670    0.5480    7.9370 H   0  0  0  0  0  0  0  0  0  0  0  0
  1157  1  0  0  0  0
  2 16  1  0  0  0  0
  3  9  2  0  0  0  0
  3 94  1  0  0  0  0
  4 86  2  0  0  0  0
  5 97  2  0  0  0  0
  5 10  1  0  0  0  0
  7 55  1  0  0  0  0
  7 85  1  0  0  0  0
  8 11  2  0  0  0  0
 10 99  2  0  0  0  0
 11  5  1  0  0  0  0
 12 88  1  0  0  0  0
 12166  1  0  0  0  0
 12 89  1  0  0  0  0
 14146  1  0  0  0  0
 14 91  2  0  0  0  0
 15  2  2  0  0  0  0
 15  4  1  0  0  0  0
 16164  1  0  0  0  0
 16 83  2  0  0  0  0
 17 23  1  0  0  0  0
 17 29  2  0  0  0  0
 18107  1  0  0  0  0
 19 21  2  0  0  0  0
 19 96  1  0  0  0  0
 20110  1  0  0  0  0
 21 33  1  0  0  0  0
 22 59  1  0  0  0  0
 22 95  1  0  0  0  0
 23 95  1  0  0  0  0
 24 18  2  0  0  0  0
 25 26  2  0  0  0  0
 25 36  1  0  0  0  0
 27  3  1  0  0  0  0
 28129  1  0  0  0  0
 28100  1  0  0  0  0
 30 31  2  0  0  0  0
 31 19  1  0  0  0  0
 32106  2  0  0  0  0
 33 35  2  0  0  0  0
 34 37  1  0  0  0  0
 35 17  1  0  0  0  0
 36 40  1  0  0  0  0
 37139  1  0  0  0  0
 37104  2  0  0  0  0
 38104  1  0  0  0  0
 38 51  1  0  0  0  0
 39 34  2  0  0  0  0
 39105  1  0  0  0  0
 40126  1  0  0  0  0
 40 41  1  0  0  0  0
 41127  1  0  0  0  0
 41113  1  0  0  0  0
 42 41  1  0  0  0  0
 42139  1  0  0  0  0
 43103  1  0  0  0  0
 43173  1  0  0  0  0
 44115  2  0  0  0  0
 45119  1  0  0  0  0
 48111  1  0  0  0  0
 50 34  1  0  0  0  0
 52 39  1  0  0  0  0
 53 97  1  0  0  0  0
 56  7  1  0  0  0  0
 57  4  1  0  0  0  0
 58 84  1  0  0  0  0
 60101  1  0  0  0  0
 61 33  1  0  0  0  0
 62 21  1  0  0  0  0
 63  1  1  0  0  0  0
 65 12  1  0  0  0  0
 66150  1  0  0  0  0
 67114  1  0  0  0  0
 68116  1  0  0  0  0
 70 77  1  0  0  0  0
 72 80  1  0  0  0  0
 73121  1  0  0  0  0
 73 82  1  0  0  0  0
 74 75  2  0  0  0  0
 75148  1  0  0  0  0
 76153  2  0  0  0  0
 77 78  1  0  0  0  0
 77 69  1  0  0  0  0
 78117  1  0  0  0  0
 79 71  1  0  0  0  0
 79161  1  0  0  0  0
 80 79  1  0  0  0  0
 80146  1  0  0  0  0
 81 82  1  0  0  0  0
 81  1  2  0  0  0  0
 82145  2  0  0  0  0
 83169  1  0  0  0  0
 84  6  1  0  0  0  0
 84  7  1  0  0  0  0
 85 92  1  0  0  0  0
 86 83  1  0  0  0  0
 86 14  1  0  0  0  0
 87 64  1  0  0  0  0
 87154  1  0  0  0  0
 89 90  1  0  0  0  0
 90 75  1  0  0  0  0
 92 13  2  0  0  0  0
 92  2  1  0  0  0  0
 93 35  1  0  0  0  0
 93136  1  0  0  0  0
 94 22  1  0  0  0  0
 95138  1  0  0  0  0
 95133  1  0  0  0  0
 96181  1  0  0  0  0
 96 93  2  0  0  0  0
 97 98  1  0  0  0  0
 98 54  1  0  0  0  0
 98 27  2  0  0  0  0
 99 27  1  0  0  0  0
 99130  1  0  0  0  0
100 44  1  0  0  0  0
101 28  1  0  0  0  0
101102  1  0  0  0  0
102 11  1  0  0  0  0
104124  1  0  0  0  0
105 38  2  0  0  0  0
106105  1  0  0  0  0
106103  1  0  0  0  0
107108  1  0  0  0  0
107 20  2  0  0  0  0
108143  2  0  0  0  0
109 25  1  0  0  0  0
110109  2  0  0  0  0
110182  1  0  0  0  0
111 47  1  0  0  0  0
112 49  1  0  0  0  0
112111  1  0  0  0  0
112141  1  0  0  0  0
114122  2  0  0  0  0
116121  1  0  0  0  0
116 77  1  0  0  0  0
117 45  1  0  0  0  0
117 46  2  0  0  0  0
118114  1  0  0  0  0
118 45  2  0  0  0  0
119120  2  0  0  0  0
119174  1  0  0  0  0
120177  1  0  0  0  0
122 44  1  0  0  0  0
122120  1  0  0  0  0
123112  1  0  0  0  0
125 40  1  0  0  0  0
128101  1  0  0  0  0
131 10  1  0  0  0  0
132 84  1  0  0  0  0
135 20  1  0  0  0  0
137 22  1  0  0  0  0
139140  2  0  0  0  0
141 18  1  0  0  0  0
142111  1  0  0  0  0
142 31  1  0  0  0  0
143134  1  0  0  0  0
143109  1  0  0  0  0
144158  1  0  0  0  0
145172  1  0  0  0  0
145144  1  0  0  0  0
147 76  1  0  0  0  0
147 79  1  0  0  0  0
148150  1  0  0  0  0
148156  2  0  0  0  0
149168  1  0  0  0  0
149154  2  0  0  0  0
150 87  2  0  0  0  0
151152  2  0  0  0  0
151  6  1  0  0  0  0
154151  1  0  0  0  0
155 73  2  0  0  0  0
156149  1  0  0  0  0
157144  2  0  0  0  0
157 76  1  0  0  0  0
159 81  1  0  0  0  0
160 80  1  0  0  0  0
162116  1  0  0  0  0
163 89  1  0  0  0  0
165 89  1  0  0  0  0
167 88  1  0  0  0  0
170156  1  0  0  0  0
171 15  1  0  0  0  0
175 43  1  0  0  0  0
176 43  1  0  0  0  0
178118  1  0  0  0  0
179 28  1  0  0  0  0
180108  1  0  0  0  0
M  END
$$$$
