13739
 OpenBabel11092011363D

 32 32  0  0  0  0  0  0  0  0999 V2000
    2.6843   -2.2870    0.7769 O   0  0  0  0  0  0  0  0  0  0  0  0
   -3.5178    0.2583   -0.5136 O   0  0  0  0  0  0  0  0  0  0  0  0
    3.6183   -0.5333   -0.3854 O   0  0  0  0  0  0  0  0  0  0  0  0
   -2.9494    2.1624    0.6485 O   0  0  0  0  0  0  0  0  0  0  0  0
    2.4316   -5.0549   -1.5777 O   0  0  0  0  0  0  0  0  0  0  0  0
   -2.4300   -0.0486   -3.0622 O   0  0  0  0  0  0  0  0  0  0  0  0
    1.2904   -0.5293    0.1305 C   0  0  0  0  0  0  0  0  0  0  0  0
   -1.2905    0.5298    0.1314 C   0  0  0  0  0  0  0  0  0  0  0  0
    0.1866   -1.3821    0.1311 C   0  0  0  0  0  0  0  0  0  0  0  0
   -1.1039   -0.8526    0.1315 C   0  0  0  0  0  0  0  0  0  0  0  0
    1.1037    0.8530    0.1304 C   0  0  0  0  0  0  0  0  0  0  0  0
   -0.1867    1.3826    0.1310 C   0  0  0  0  0  0  0  0  0  0  0  0
    2.6356   -1.0816    0.1313 C   0  0  0  0  0  0  0  0  0  0  0  0
   -2.6356    1.0817    0.1316 C   0  0  0  0  0  0  0  0  0  0  0  0
    3.1353   -3.4116    0.0146 C   0  0  0  0  0  0  0  0  0  0  0  0
   -4.1808    0.7941   -1.6638 C   0  0  0  0  0  0  0  0  0  0  0  0
    1.9881   -3.9274   -0.8326 C   0  0  0  0  0  0  0  0  0  0  0  0
   -3.8397   -0.0561   -2.8723 C   0  0  0  0  0  0  0  0  0  0  0  0
    0.3104   -2.4619    0.1314 H   0  0  0  0  0  0  0  0  0  0  0  0
   -1.9332   -1.5543    0.1317 H   0  0  0  0  0  0  0  0  0  0  0  0
    1.9330    1.5547    0.1300 H   0  0  0  0  0  0  0  0  0  0  0  0
   -0.3105    2.4624    0.1308 H   0  0  0  0  0  0  0  0  0  0  0  0
    3.9671   -3.1062   -0.6293 H   0  0  0  0  0  0  0  0  0  0  0  0
    3.4716   -4.1909    0.7081 H   0  0  0  0  0  0  0  0  0  0  0  0
   -5.2633    0.7919   -1.4970 H   0  0  0  0  0  0  0  0  0  0  0  0
   -3.8310    1.8210   -1.8194 H   0  0  0  0  0  0  0  0  0  0  0  0
    1.6267   -3.1629   -1.5262 H   0  0  0  0  0  0  0  0  0  0  0  0
    1.1581   -4.2591   -0.2018 H   0  0  0  0  0  0  0  0  0  0  0  0
   -4.3141    0.3375   -3.7754 H   0  0  0  0  0  0  0  0  0  0  0  0
   -4.1526   -1.0947   -2.7273 H   0  0  0  0  0  0  0  0  0  0  0  0
    3.1573   -4.7589   -2.1534 H   0  0  0  0  0  0  0  0  0  0  0  0
   -2.0240   -0.3881   -2.2463 H   0  0  0  0  0  0  0  0  0  0  0  0
  1 13  1  0  0  0  0
  1 15  1  0  0  0  0
  2 14  1  0  0  0  0
  2 16  1  0  0  0  0
  3 13  2  0  0  0  0
  4 14  2  0  0  0  0
  5 17  1  0  0  0  0
  5 31  1  0  0  0  0
  6 18  1  0  0  0  0
  6 32  1  0  0  0  0
  7  9  2  0  0  0  0
  7 11  1  0  0  0  0
  7 13  1  0  0  0  0
  8 10  2  0  0  0  0
  8 12  1  0  0  0  0
  8 14  1  0  0  0  0
  9 10  1  0  0  0  0
  9 19  1  0  0  0  0
 10 20  1  0  0  0  0
 11 12  2  0  0  0  0
 11 21  1  0  0  0  0
 12 22  1  0  0  0  0
 15 17  1  0  0  0  0
 15 23  1  0  0  0  0
 15 24  1  0  0  0  0
 16 18  1  0  0  0  0
 16 25  1  0  0  0  0
 16 26  1  0  0  0  0
 17 27  1  0  0  0  0
 17 28  1  0  0  0  0
 18 29  1  0  0  0  0
 18 30  1  0  0  0  0
M  END
>  <PUBCHEM_COMPOUND_CID>
13739

>  <PUBCHEM_CONFORMER_RMSD>
0.8

>  <PUBCHEM_CONFORMER_DIVERSEORDER>
1
57
49
30
42
33
44
14
53
22
19
10
12
45
3
41
11
32
40
15
36
55
29
9
38
4
58
17
37
43
52
24
51
35
20
56
31
39
16
2
21
23
28
34
26
18
25
5
46
47
6
48
8
13
50
7
27
54

>  <PUBCHEM_MMFF94_PARTIAL_CHARGES>
24
1 -0.43
10 -0.15
11 -0.15
12 -0.15
13 0.63
14 0.63
15 0.28
16 0.28
17 0.28
18 0.28
19 0.15
2 -0.43
20 0.15
21 0.15
22 0.15
3 -0.57
31 0.4
32 0.4
4 -0.57
5 -0.68
6 -0.68
7 0.09
8 0.09
9 -0.15

>  <PUBCHEM_EFFECTIVE_ROTOR_COUNT>
8

>  <PUBCHEM_PHARMACOPHORE_FEATURES>
7
1 3 acceptor
1 4 acceptor
1 5 acceptor
1 5 donor
1 6 acceptor
1 6 donor
6 7 8 9 10 11 12 rings

>  <PUBCHEM_HEAVY_ATOM_COUNT>
18

>  <PUBCHEM_ATOM_DEF_STEREO_COUNT>
0

>  <PUBCHEM_ATOM_UDEF_STEREO_COUNT>
0

>  <PUBCHEM_BOND_DEF_STEREO_COUNT>
0

>  <PUBCHEM_BOND_UDEF_STEREO_COUNT>
0

>  <PUBCHEM_ISOTOPIC_ATOM_COUNT>
0

>  <PUBCHEM_COMPONENT_COUNT>
1

>  <PUBCHEM_CACTVS_TAUTO_COUNT>
1

>  <PUBCHEM_CONFORMER_ID>
000035AB00000001

>  <PUBCHEM_MMFF94_ENERGY>
44.2295

>  <PUBCHEM_FEATURE_SELFOVERLAP>
35.523

>  <PUBCHEM_SHAPE_FINGERPRINT>
10968037 39 18410012152543713039
11089746 13 12540695946557521839
11806522 49 18410009918986535353
12236239 1 18410855447243259972
13533116 47 16660916683113605170
13862211 1 18410006628598832378
14251718 22 18411136939420945249
14251732 16 18410855494493175089
14528608 73 18409733958879929100
14787075 74 18409729560226607264
15196674 1 18338516313804112001
17834072 33 18412824698380719020
19489759 90 14418129604479230181
200 152 18412260623910614371
20645477 70 18199752449496498934
21267235 1 18412550889973548114
221490 88 18263928916185329587
23272321 79 18409451383816681488
23402539 116 18335415751807977061
23402655 69 18339074883518801269
23559900 14 18262797501097503721
34797466 226 17203614826284060588
350125 39 18411983563781164433
3545911 37 18410577275887755602
4325135 7 18410855468718096782
4340502 62 16732706042963078794
4463277 17 18412265021635592889
474 4 17676779746965951636
474229 33 18411136935353240571
5104073 3 18266741281369621474
7062679 117 18341894121495265503

>  <PUBCHEM_SHAPE_MULTIPOLES>
335.22
13.61
1.83
0.69
0
0
-0.08
0
-1.87
0
-0.09
0
0
-0.86

>  <PUBCHEM_SHAPE_SELFOVERLAP>
687.263

>  <PUBCHEM_SHAPE_VOLUME>
192.6

>  <PUBCHEM_COORDINATE_TYPE>
2
5
10

$$$$
13739
 OpenBabel11092011363D

 32 32  0  0  0  0  0  0  0  0999 V2000
    3.5844   -0.0957    0.1288 O   0  0  0  0  0  0  0  0  0  0  0  0
   -3.5178    0.2583   -0.5136 O   0  0  0  0  0  0  0  0  0  0  0  0
    2.8958   -2.2922    0.1329 O   0  0  0  0  0  0  0  0  0  0  0  0
   -2.9494    2.1624    0.6485 O   0  0  0  0  0  0  0  0  0  0  0  0
    6.2660   -0.7935    0.4374 O   0  0  0  0  0  0  0  0  0  0  0  0
   -2.0661    1.4514   -2.5733 O   0  0  0  0  0  0  0  0  0  0  0  0
    1.2904   -0.5293    0.1305 C   0  0  0  0  0  0  0  0  0  0  0  0
   -1.2905    0.5298    0.1314 C   0  0  0  0  0  0  0  0  0  0  0  0
    0.1866   -1.3821    0.1311 C   0  0  0  0  0  0  0  0  0  0  0  0
   -1.1039   -0.8526    0.1315 C   0  0  0  0  0  0  0  0  0  0  0  0
    1.1037    0.8530    0.1304 C   0  0  0  0  0  0  0  0  0  0  0  0
   -0.1867    1.3826    0.1310 C   0  0  0  0  0  0  0  0  0  0  0  0
    2.6356   -1.0816    0.1313 C   0  0  0  0  0  0  0  0  0  0  0  0
   -2.6356    1.0817    0.1316 C   0  0  0  0  0  0  0  0  0  0  0  0
    4.4833   -0.0655   -0.9850 C   0  0  0  0  0  0  0  0  0  0  0  0
   -4.1808    0.7941   -1.6638 C   0  0  0  0  0  0  0  0  0  0  0  0
    5.5746   -1.0961   -0.7683 C   0  0  0  0  0  0  0  0  0  0  0  0
   -3.2475    0.7114   -2.8562 C   0  0  0  0  0  0  0  0  0  0  0  0
    0.3104   -2.4619    0.1314 H   0  0  0  0  0  0  0  0  0  0  0  0
   -1.9332   -1.5543    0.1317 H   0  0  0  0  0  0  0  0  0  0  0  0
    1.9330    1.5547    0.1300 H   0  0  0  0  0  0  0  0  0  0  0  0
   -0.3105    2.4624    0.1308 H   0  0  0  0  0  0  0  0  0  0  0  0
    3.9329   -0.2922   -1.9045 H   0  0  0  0  0  0  0  0  0  0  0  0
    4.9203    0.9373   -1.0534 H   0  0  0  0  0  0  0  0  0  0  0  0
   -5.0932    0.2211   -1.8610 H   0  0  0  0  0  0  0  0  0  0  0  0
   -4.4358    1.8406   -1.4616 H   0  0  0  0  0  0  0  0  0  0  0  0
    6.2896   -1.1028   -1.5959 H   0  0  0  0  0  0  0  0  0  0  0  0
    5.1470   -2.0969   -0.6569 H   0  0  0  0  0  0  0  0  0  0  0  0
   -3.7153    1.1321   -3.7505 H   0  0  0  0  0  0  0  0  0  0  0  0
   -2.9541   -0.3233   -3.0588 H   0  0  0  0  0  0  0  0  0  0  0  0
    6.6631    0.0882    0.3343 H   0  0  0  0  0  0  0  0  0  0  0  0
   -1.6710    1.0736   -1.7690 H   0  0  0  0  0  0  0  0  0  0  0  0
  1 13  1  0  0  0  0
  1 15  1  0  0  0  0
  2 14  1  0  0  0  0
  2 16  1  0  0  0  0
  3 13  2  0  0  0  0
  4 14  2  0  0  0  0
  5 17  1  0  0  0  0
  5 31  1  0  0  0  0
  6 18  1  0  0  0  0
  6 32  1  0  0  0  0
  7  9  2  0  0  0  0
  7 11  1  0  0  0  0
  7 13  1  0  0  0  0
  8 10  2  0  0  0  0
  8 12  1  0  0  0  0
  8 14  1  0  0  0  0
  9 10  1  0  0  0  0
  9 19  1  0  0  0  0
 10 20  1  0  0  0  0
 11 12  2  0  0  0  0
 11 21  1  0  0  0  0
 12 22  1  0  0  0  0
 15 17  1  0  0  0  0
 15 23  1  0  0  0  0
 15 24  1  0  0  0  0
 16 18  1  0  0  0  0
 16 25  1  0  0  0  0
 16 26  1  0  0  0  0
 17 27  1  0  0  0  0
 17 28  1  0  0  0  0
 18 29  1  0  0  0  0
 18 30  1  0  0  0  0
M  END
>  <PUBCHEM_COMPOUND_CID>
13739

>  <PUBCHEM_CONFORMER_RMSD>
0.8

>  <PUBCHEM_CONFORMER_DIVERSEORDER>
1
57
49
30
42
33
44
14
53
22
19
10
12
45
3
41
11
32
40
15
36
55
29
9
38
4
58
17
37
43
52
24
51
35
20
56
31
39
16
2
21
23
28
34
26
18
25
5
46
47
6
48
8
13
50
7
27
54

>  <PUBCHEM_MMFF94_PARTIAL_CHARGES>
24
1 -0.43
10 -0.15
11 -0.15
12 -0.15
13 0.63
14 0.63
15 0.28
16 0.28
17 0.28
18 0.28
19 0.15
2 -0.43
20 0.15
21 0.15
22 0.15
3 -0.57
31 0.4
32 0.4
4 -0.57
5 -0.68
6 -0.68
7 0.09
8 0.09
9 -0.15

>  <PUBCHEM_EFFECTIVE_ROTOR_COUNT>
8

>  <PUBCHEM_PHARMACOPHORE_FEATURES>
7
1 3 acceptor
1 4 acceptor
1 5 acceptor
1 5 donor
1 6 acceptor
1 6 donor
6 7 8 9 10 11 12 rings

>  <PUBCHEM_HEAVY_ATOM_COUNT>
18

>  <PUBCHEM_ATOM_DEF_STEREO_COUNT>
0

>  <PUBCHEM_ATOM_UDEF_STEREO_COUNT>
0

>  <PUBCHEM_BOND_DEF_STEREO_COUNT>
0

>  <PUBCHEM_BOND_UDEF_STEREO_COUNT>
0

>  <PUBCHEM_ISOTOPIC_ATOM_COUNT>
0

>  <PUBCHEM_COMPONENT_COUNT>
1

>  <PUBCHEM_CACTVS_TAUTO_COUNT>
1

>  <PUBCHEM_CONFORMER_ID>
000035AB00000001

>  <PUBCHEM_MMFF94_ENERGY>
44.2295

>  <PUBCHEM_FEATURE_SELFOVERLAP>
35.523

>  <PUBCHEM_SHAPE_FINGERPRINT>
10968037 39 18410012152543713039
11089746 13 12540695946557521839
11806522 49 18410009918986535353
12236239 1 18410855447243259972
13533116 47 16660916683113605170
13862211 1 18410006628598832378
14251718 22 18411136939420945249
14251732 16 18410855494493175089
14528608 73 18409733958879929100
14787075 74 18409729560226607264
15196674 1 18338516313804112001
17834072 33 18412824698380719020
19489759 90 14418129604479230181
200 152 18412260623910614371
20645477 70 18199752449496498934
21267235 1 18412550889973548114
221490 88 18263928916185329587
23272321 79 18409451383816681488
23402539 116 18335415751807977061
23402655 69 18339074883518801269
23559900 14 18262797501097503721
34797466 226 17203614826284060588
350125 39 18411983563781164433
3545911 37 18410577275887755602
4325135 7 18410855468718096782
4340502 62 16732706042963078794
4463277 17 18412265021635592889
474 4 17676779746965951636
474229 33 18411136935353240571
5104073 3 18266741281369621474
7062679 117 18341894121495265503

>  <PUBCHEM_SHAPE_MULTIPOLES>
335.22
13.61
1.83
0.69
0
0
-0.08
0
-1.87
0
-0.09
0
0
-0.86

>  <PUBCHEM_SHAPE_SELFOVERLAP>
687.263

>  <PUBCHEM_SHAPE_VOLUME>
192.6

>  <PUBCHEM_COORDINATE_TYPE>
2
5
10

$$$$
13739
 OpenBabel11092011363D

 32 32  0  0  0  0  0  0  0  0999 V2000
    3.5213   -0.2484    0.7586 O   0  0  0  0  0  0  0  0  0  0  0  0
   -3.5178    0.2583   -0.5136 O   0  0  0  0  0  0  0  0  0  0  0  0
    2.9466   -2.1692   -0.3723 O   0  0  0  0  0  0  0  0  0  0  0  0
   -2.9494    2.1624    0.6485 O   0  0  0  0  0  0  0  0  0  0  0  0
    4.6531    2.2651    1.2604 O   0  0  0  0  0  0  0  0  0  0  0  0
   -2.0661    1.4514   -2.5733 O   0  0  0  0  0  0  0  0  0  0  0  0
    1.2904   -0.5293    0.1305 C   0  0  0  0  0  0  0  0  0  0  0  0
   -1.2905    0.5298    0.1314 C   0  0  0  0  0  0  0  0  0  0  0  0
    0.1866   -1.3821    0.1311 C   0  0  0  0  0  0  0  0  0  0  0  0
   -1.1039   -0.8526    0.1315 C   0  0  0  0  0  0  0  0  0  0  0  0
    1.1037    0.8530    0.1304 C   0  0  0  0  0  0  0  0  0  0  0  0
   -0.1867    1.3826    0.1310 C   0  0  0  0  0  0  0  0  0  0  0  0
    2.6356   -1.0816    0.1313 C   0  0  0  0  0  0  0  0  0  0  0  0
   -2.6356    1.0817    0.1316 C   0  0  0  0  0  0  0  0  0  0  0  0
    4.6110    0.2470   -0.0266 C   0  0  0  0  0  0  0  0  0  0  0  0
   -4.1808    0.7941   -1.6638 C   0  0  0  0  0  0  0  0  0  0  0  0
    4.5446    1.7616   -0.0655 C   0  0  0  0  0  0  0  0  0  0  0  0
   -3.2475    0.7114   -2.8562 C   0  0  0  0  0  0  0  0  0  0  0  0
    0.3104   -2.4619    0.1314 H   0  0  0  0  0  0  0  0  0  0  0  0
   -1.9332   -1.5543    0.1317 H   0  0  0  0  0  0  0  0  0  0  0  0
    1.9330    1.5547    0.1300 H   0  0  0  0  0  0  0  0  0  0  0  0
   -0.3105    2.4624    0.1308 H   0  0  0  0  0  0  0  0  0  0  0  0
    5.5583   -0.0739    0.4200 H   0  0  0  0  0  0  0  0  0  0  0  0
    4.5238   -0.1601   -1.0405 H   0  0  0  0  0  0  0  0  0  0  0  0
   -5.0932    0.2211   -1.8610 H   0  0  0  0  0  0  0  0  0  0  0  0
   -4.4358    1.8406   -1.4616 H   0  0  0  0  0  0  0  0  0  0  0  0
    3.6046    2.1105   -0.5023 H   0  0  0  0  0  0  0  0  0  0  0  0
    5.3801    2.1724   -0.6399 H   0  0  0  0  0  0  0  0  0  0  0  0
   -3.7153    1.1321   -3.7505 H   0  0  0  0  0  0  0  0  0  0  0  0
   -2.9541   -0.3233   -3.0588 H   0  0  0  0  0  0  0  0  0  0  0  0
    3.9009    1.9167    1.7688 H   0  0  0  0  0  0  0  0  0  0  0  0
   -1.6710    1.0736   -1.7690 H   0  0  0  0  0  0  0  0  0  0  0  0
  1 13  1  0  0  0  0
  1 15  1  0  0  0  0
  2 14  1  0  0  0  0
  2 16  1  0  0  0  0
  3 13  2  0  0  0  0
  4 14  2  0  0  0  0
  5 17  1  0  0  0  0
  5 31  1  0  0  0  0
  6 18  1  0  0  0  0
  6 32  1  0  0  0  0
  7  9  2  0  0  0  0
  7 11  1  0  0  0  0
  7 13  1  0  0  0  0
  8 10  2  0  0  0  0
  8 12  1  0  0  0  0
  8 14  1  0  0  0  0
  9 10  1  0  0  0  0
  9 19  1  0  0  0  0
 10 20  1  0  0  0  0
 11 12  2  0  0  0  0
 11 21  1  0  0  0  0
 12 22  1  0  0  0  0
 15 17  1  0  0  0  0
 15 23  1  0  0  0  0
 15 24  1  0  0  0  0
 16 18  1  0  0  0  0
 16 25  1  0  0  0  0
 16 26  1  0  0  0  0
 17 27  1  0  0  0  0
 17 28  1  0  0  0  0
 18 29  1  0  0  0  0
 18 30  1  0  0  0  0
M  END
>  <PUBCHEM_COMPOUND_CID>
13739

>  <PUBCHEM_CONFORMER_RMSD>
0.8

>  <PUBCHEM_CONFORMER_DIVERSEORDER>
1
57
49
30
42
33
44
14
53
22
19
10
12
45
3
41
11
32
40
15
36
55
29
9
38
4
58
17
37
43
52
24
51
35
20
56
31
39
16
2
21
23
28
34
26
18
25
5
46
47
6
48
8
13
50
7
27
54

>  <PUBCHEM_MMFF94_PARTIAL_CHARGES>
24
1 -0.43
10 -0.15
11 -0.15
12 -0.15
13 0.63
14 0.63
15 0.28
16 0.28
17 0.28
18 0.28
19 0.15
2 -0.43
20 0.15
21 0.15
22 0.15
3 -0.57
31 0.4
32 0.4
4 -0.57
5 -0.68
6 -0.68
7 0.09
8 0.09
9 -0.15

>  <PUBCHEM_EFFECTIVE_ROTOR_COUNT>
8

>  <PUBCHEM_PHARMACOPHORE_FEATURES>
7
1 3 acceptor
1 4 acceptor
1 5 acceptor
1 5 donor
1 6 acceptor
1 6 donor
6 7 8 9 10 11 12 rings

>  <PUBCHEM_HEAVY_ATOM_COUNT>
18

>  <PUBCHEM_ATOM_DEF_STEREO_COUNT>
0

>  <PUBCHEM_ATOM_UDEF_STEREO_COUNT>
0

>  <PUBCHEM_BOND_DEF_STEREO_COUNT>
0

>  <PUBCHEM_BOND_UDEF_STEREO_COUNT>
0

>  <PUBCHEM_ISOTOPIC_ATOM_COUNT>
0

>  <PUBCHEM_COMPONENT_COUNT>
1

>  <PUBCHEM_CACTVS_TAUTO_COUNT>
1

>  <PUBCHEM_CONFORMER_ID>
000035AB00000001

>  <PUBCHEM_MMFF94_ENERGY>
44.2295

>  <PUBCHEM_FEATURE_SELFOVERLAP>
35.523

>  <PUBCHEM_SHAPE_FINGERPRINT>
10968037 39 18410012152543713039
11089746 13 12540695946557521839
11806522 49 18410009918986535353
12236239 1 18410855447243259972
13533116 47 16660916683113605170
13862211 1 18410006628598832378
14251718 22 18411136939420945249
14251732 16 18410855494493175089
14528608 73 18409733958879929100
14787075 74 18409729560226607264
15196674 1 18338516313804112001
17834072 33 18412824698380719020
19489759 90 14418129604479230181
200 152 18412260623910614371
20645477 70 18199752449496498934
21267235 1 18412550889973548114
221490 88 18263928916185329587
23272321 79 18409451383816681488
23402539 116 18335415751807977061
23402655 69 18339074883518801269
23559900 14 18262797501097503721
34797466 226 17203614826284060588
350125 39 18411983563781164433
3545911 37 18410577275887755602
4325135 7 18410855468718096782
4340502 62 16732706042963078794
4463277 17 18412265021635592889
474 4 17676779746965951636
474229 33 18411136935353240571
5104073 3 18266741281369621474
7062679 117 18341894121495265503

>  <PUBCHEM_SHAPE_MULTIPOLES>
335.22
13.61
1.83
0.69
0
0
-0.08
0
-1.87
0
-0.09
0
0
-0.86

>  <PUBCHEM_SHAPE_SELFOVERLAP>
687.263

>  <PUBCHEM_SHAPE_VOLUME>
192.6

>  <PUBCHEM_COORDINATE_TYPE>
2
5
10

$$$$
13739
 OpenBabel11092011363D

 32 32  0  0  0  0  0  0  0  0999 V2000
    2.6843   -2.2870    0.7769 O   0  0  0  0  0  0  0  0  0  0  0  0
   -2.6184    2.4500    0.1343 O   0  0  0  0  0  0  0  0  0  0  0  0
    3.6183   -0.5333   -0.3854 O   0  0  0  0  0  0  0  0  0  0  0  0
   -3.6715    0.4029    0.1307 O   0  0  0  0  0  0  0  0  0  0  0  0
    4.4432   -1.8201    2.9074 O   0  0  0  0  0  0  0  0  0  0  0  0
   -2.0366    1.7690   -2.5205 O   0  0  0  0  0  0  0  0  0  0  0  0
    1.2904   -0.5293    0.1305 C   0  0  0  0  0  0  0  0  0  0  0  0
   -1.2905    0.5298    0.1314 C   0  0  0  0  0  0  0  0  0  0  0  0
    0.1866   -1.3821    0.1311 C   0  0  0  0  0  0  0  0  0  0  0  0
   -1.1039   -0.8526    0.1315 C   0  0  0  0  0  0  0  0  0  0  0  0
    1.1037    0.8530    0.1304 C   0  0  0  0  0  0  0  0  0  0  0  0
   -0.1867    1.3826    0.1310 C   0  0  0  0  0  0  0  0  0  0  0  0
    2.6356   -1.0816    0.1313 C   0  0  0  0  0  0  0  0  0  0  0  0
   -2.6356    1.0817    0.1316 C   0  0  0  0  0  0  0  0  0  0  0  0
    3.9596   -2.9339    0.8443 C   0  0  0  0  0  0  0  0  0  0  0  0
   -3.2642    3.1077   -0.9611 C   0  0  0  0  0  0  0  0  0  0  0  0
    4.9304   -2.0378    1.5889 C   0  0  0  0  0  0  0  0  0  0  0  0
   -2.3301    3.1122   -2.1558 C   0  0  0  0  0  0  0  0  0  0  0  0
    0.3104   -2.4619    0.1314 H   0  0  0  0  0  0  0  0  0  0  0  0
   -1.9332   -1.5543    0.1317 H   0  0  0  0  0  0  0  0  0  0  0  0
    1.9330    1.5547    0.1300 H   0  0  0  0  0  0  0  0  0  0  0  0
   -0.3105    2.4624    0.1308 H   0  0  0  0  0  0  0  0  0  0  0  0
    3.8566   -3.8901    1.3687 H   0  0  0  0  0  0  0  0  0  0  0  0
    4.3162   -3.1092   -0.1772 H   0  0  0  0  0  0  0  0  0  0  0  0
   -4.1906    2.5795   -1.2111 H   0  0  0  0  0  0  0  0  0  0  0  0
   -3.4926    4.1371   -0.6623 H   0  0  0  0  0  0  0  0  0  0  0  0
    5.0481   -1.0720    1.0894 H   0  0  0  0  0  0  0  0  0  0  0  0
    5.9103   -2.5161    1.6778 H   0  0  0  0  0  0  0  0  0  0  0  0
   -1.3918    3.6208   -1.9182 H   0  0  0  0  0  0  0  0  0  0  0  0
   -2.7932    3.6001   -3.0191 H   0  0  0  0  0  0  0  0  0  0  0  0
    3.5804   -1.3778    2.8318 H   0  0  0  0  0  0  0  0  0  0  0  0
   -2.8814    1.3283   -2.7148 H   0  0  0  0  0  0  0  0  0  0  0  0
  1 13  1  0  0  0  0
  1 15  1  0  0  0  0
  2 14  1  0  0  0  0
  2 16  1  0  0  0  0
  3 13  2  0  0  0  0
  4 14  2  0  0  0  0
  5 17  1  0  0  0  0
  5 31  1  0  0  0  0
  6 18  1  0  0  0  0
  6 32  1  0  0  0  0
  7  9  2  0  0  0  0
  7 11  1  0  0  0  0
  7 13  1  0  0  0  0
  8 10  2  0  0  0  0
  8 12  1  0  0  0  0
  8 14  1  0  0  0  0
  9 10  1  0  0  0  0
  9 19  1  0  0  0  0
 10 20  1  0  0  0  0
 11 12  2  0  0  0  0
 11 21  1  0  0  0  0
 12 22  1  0  0  0  0
 15 17  1  0  0  0  0
 15 23  1  0  0  0  0
 15 24  1  0  0  0  0
 16 18  1  0  0  0  0
 16 25  1  0  0  0  0
 16 26  1  0  0  0  0
 17 27  1  0  0  0  0
 17 28  1  0  0  0  0
 18 29  1  0  0  0  0
 18 30  1  0  0  0  0
M  END
>  <PUBCHEM_COMPOUND_CID>
13739

>  <PUBCHEM_CONFORMER_RMSD>
0.8

>  <PUBCHEM_CONFORMER_DIVERSEORDER>
1
57
49
30
42
33
44
14
53
22
19
10
12
45
3
41
11
32
40
15
36
55
29
9
38
4
58
17
37
43
52
24
51
35
20
56
31
39
16
2
21
23
28
34
26
18
25
5
46
47
6
48
8
13
50
7
27
54

>  <PUBCHEM_MMFF94_PARTIAL_CHARGES>
24
1 -0.43
10 -0.15
11 -0.15
12 -0.15
13 0.63
14 0.63
15 0.28
16 0.28
17 0.28
18 0.28
19 0.15
2 -0.43
20 0.15
21 0.15
22 0.15
3 -0.57
31 0.4
32 0.4
4 -0.57
5 -0.68
6 -0.68
7 0.09
8 0.09
9 -0.15

>  <PUBCHEM_EFFECTIVE_ROTOR_COUNT>
8

>  <PUBCHEM_PHARMACOPHORE_FEATURES>
7
1 3 acceptor
1 4 acceptor
1 5 acceptor
1 5 donor
1 6 acceptor
1 6 donor
6 7 8 9 10 11 12 rings

>  <PUBCHEM_HEAVY_ATOM_COUNT>
18

>  <PUBCHEM_ATOM_DEF_STEREO_COUNT>
0

>  <PUBCHEM_ATOM_UDEF_STEREO_COUNT>
0

>  <PUBCHEM_BOND_DEF_STEREO_COUNT>
0

>  <PUBCHEM_BOND_UDEF_STEREO_COUNT>
0

>  <PUBCHEM_ISOTOPIC_ATOM_COUNT>
0

>  <PUBCHEM_COMPONENT_COUNT>
1

>  <PUBCHEM_CACTVS_TAUTO_COUNT>
1

>  <PUBCHEM_CONFORMER_ID>
000035AB00000001

>  <PUBCHEM_MMFF94_ENERGY>
44.2295

>  <PUBCHEM_FEATURE_SELFOVERLAP>
35.523

>  <PUBCHEM_SHAPE_FINGERPRINT>
10968037 39 18410012152543713039
11089746 13 12540695946557521839
11806522 49 18410009918986535353
12236239 1 18410855447243259972
13533116 47 16660916683113605170
13862211 1 18410006628598832378
14251718 22 18411136939420945249
14251732 16 18410855494493175089
14528608 73 18409733958879929100
14787075 74 18409729560226607264
15196674 1 18338516313804112001
17834072 33 18412824698380719020
19489759 90 14418129604479230181
200 152 18412260623910614371
20645477 70 18199752449496498934
21267235 1 18412550889973548114
221490 88 18263928916185329587
23272321 79 18409451383816681488
23402539 116 18335415751807977061
23402655 69 18339074883518801269
23559900 14 18262797501097503721
34797466 226 17203614826284060588
350125 39 18411983563781164433
3545911 37 18410577275887755602
4325135 7 18410855468718096782
4340502 62 16732706042963078794
4463277 17 18412265021635592889
474 4 17676779746965951636
474229 33 18411136935353240571
5104073 3 18266741281369621474
7062679 117 18341894121495265503

>  <PUBCHEM_SHAPE_MULTIPOLES>
335.22
13.61
1.83
0.69
0
0
-0.08
0
-1.87
0
-0.09
0
0
-0.86

>  <PUBCHEM_SHAPE_SELFOVERLAP>
687.263

>  <PUBCHEM_SHAPE_VOLUME>
192.6

>  <PUBCHEM_COORDINATE_TYPE>
2
5
10

$$$$
13739
 OpenBabel11092011363D

 32 32  0  0  0  0  0  0  0  0999 V2000
    2.6843   -2.2870    0.7769 O   0  0  0  0  0  0  0  0  0  0  0  0
   -3.5178    0.2583   -0.5136 O   0  0  0  0  0  0  0  0  0  0  0  0
    3.6183   -0.5333   -0.3854 O   0  0  0  0  0  0  0  0  0  0  0  0
   -2.9494    2.1624    0.6485 O   0  0  0  0  0  0  0  0  0  0  0  0
    0.8904   -3.8161   -0.7119 O   0  0  0  0  0  0  0  0  0  0  0  0
   -4.4224    1.7778   -2.6690 O   0  0  0  0  0  0  0  0  0  0  0  0
    1.2904   -0.5293    0.1305 C   0  0  0  0  0  0  0  0  0  0  0  0
   -1.2905    0.5298    0.1314 C   0  0  0  0  0  0  0  0  0  0  0  0
    0.1866   -1.3821    0.1311 C   0  0  0  0  0  0  0  0  0  0  0  0
   -1.1039   -0.8526    0.1315 C   0  0  0  0  0  0  0  0  0  0  0  0
    1.1037    0.8530    0.1304 C   0  0  0  0  0  0  0  0  0  0  0  0
   -0.1867    1.3826    0.1310 C   0  0  0  0  0  0  0  0  0  0  0  0
    2.6356   -1.0816    0.1313 C   0  0  0  0  0  0  0  0  0  0  0  0
   -2.6356    1.0817    0.1316 C   0  0  0  0  0  0  0  0  0  0  0  0
    3.1353   -3.4116    0.0146 C   0  0  0  0  0  0  0  0  0  0  0  0
   -4.8792    0.6956   -0.5831 C   0  0  0  0  0  0  0  0  0  0  0  0
    2.2173   -3.6017   -1.1775 C   0  0  0  0  0  0  0  0  0  0  0  0
   -5.2806    0.8346   -2.0389 C   0  0  0  0  0  0  0  0  0  0  0  0
    0.3104   -2.4619    0.1314 H   0  0  0  0  0  0  0  0  0  0  0  0
   -1.9332   -1.5543    0.1317 H   0  0  0  0  0  0  0  0  0  0  0  0
    1.9330    1.5547    0.1300 H   0  0  0  0  0  0  0  0  0  0  0  0
   -0.3105    2.4624    0.1308 H   0  0  0  0  0  0  0  0  0  0  0  0
    4.1602   -3.2329   -0.3282 H   0  0  0  0  0  0  0  0  0  0  0  0
    3.1096   -4.3004    0.6555 H   0  0  0  0  0  0  0  0  0  0  0  0
   -5.5248   -0.0351   -0.0841 H   0  0  0  0  0  0  0  0  0  0  0  0
   -4.9585    1.6660   -0.0800 H   0  0  0  0  0  0  0  0  0  0  0  0
    2.5229   -4.4574   -1.7863 H   0  0  0  0  0  0  0  0  0  0  0  0
    2.2026   -2.7045   -1.8033 H   0  0  0  0  0  0  0  0  0  0  0  0
   -6.3114    1.1878   -2.1297 H   0  0  0  0  0  0  0  0  0  0  0  0
   -5.1802   -0.1168   -2.5703 H   0  0  0  0  0  0  0  0  0  0  0  0
    0.8966   -4.6239   -0.1705 H   0  0  0  0  0  0  0  0  0  0  0  0
   -3.5104    1.4559   -2.5672 H   0  0  0  0  0  0  0  0  0  0  0  0
  1 13  1  0  0  0  0
  1 15  1  0  0  0  0
  2 14  1  0  0  0  0
  2 16  1  0  0  0  0
  3 13  2  0  0  0  0
  4 14  2  0  0  0  0
  5 17  1  0  0  0  0
  5 31  1  0  0  0  0
  6 18  1  0  0  0  0
  6 32  1  0  0  0  0
  7  9  2  0  0  0  0
  7 11  1  0  0  0  0
  7 13  1  0  0  0  0
  8 10  2  0  0  0  0
  8 12  1  0  0  0  0
  8 14  1  0  0  0  0
  9 10  1  0  0  0  0
  9 19  1  0  0  0  0
 10 20  1  0  0  0  0
 11 12  2  0  0  0  0
 11 21  1  0  0  0  0
 12 22  1  0  0  0  0
 15 17  1  0  0  0  0
 15 23  1  0  0  0  0
 15 24  1  0  0  0  0
 16 18  1  0  0  0  0
 16 25  1  0  0  0  0
 16 26  1  0  0  0  0
 17 27  1  0  0  0  0
 17 28  1  0  0  0  0
 18 29  1  0  0  0  0
 18 30  1  0  0  0  0
M  END
>  <PUBCHEM_COMPOUND_CID>
13739

>  <PUBCHEM_CONFORMER_RMSD>
0.8

>  <PUBCHEM_CONFORMER_DIVERSEORDER>
1
57
49
30
42
33
44
14
53
22
19
10
12
45
3
41
11
32
40
15
36
55
29
9
38
4
58
17
37
43
52
24
51
35
20
56
31
39
16
2
21
23
28
34
26
18
25
5
46
47
6
48
8
13
50
7
27
54

>  <PUBCHEM_MMFF94_PARTIAL_CHARGES>
24
1 -0.43
10 -0.15
11 -0.15
12 -0.15
13 0.63
14 0.63
15 0.28
16 0.28
17 0.28
18 0.28
19 0.15
2 -0.43
20 0.15
21 0.15
22 0.15
3 -0.57
31 0.4
32 0.4
4 -0.57
5 -0.68
6 -0.68
7 0.09
8 0.09
9 -0.15

>  <PUBCHEM_EFFECTIVE_ROTOR_COUNT>
8

>  <PUBCHEM_PHARMACOPHORE_FEATURES>
7
1 3 acceptor
1 4 acceptor
1 5 acceptor
1 5 donor
1 6 acceptor
1 6 donor
6 7 8 9 10 11 12 rings

>  <PUBCHEM_HEAVY_ATOM_COUNT>
18

>  <PUBCHEM_ATOM_DEF_STEREO_COUNT>
0

>  <PUBCHEM_ATOM_UDEF_STEREO_COUNT>
0

>  <PUBCHEM_BOND_DEF_STEREO_COUNT>
0

>  <PUBCHEM_BOND_UDEF_STEREO_COUNT>
0

>  <PUBCHEM_ISOTOPIC_ATOM_COUNT>
0

>  <PUBCHEM_COMPONENT_COUNT>
1

>  <PUBCHEM_CACTVS_TAUTO_COUNT>
1

>  <PUBCHEM_CONFORMER_ID>
000035AB00000001

>  <PUBCHEM_MMFF94_ENERGY>
44.2295

>  <PUBCHEM_FEATURE_SELFOVERLAP>
35.523

>  <PUBCHEM_SHAPE_FINGERPRINT>
10968037 39 18410012152543713039
11089746 13 12540695946557521839
11806522 49 18410009918986535353
12236239 1 18410855447243259972
13533116 47 16660916683113605170
13862211 1 18410006628598832378
14251718 22 18411136939420945249
14251732 16 18410855494493175089
14528608 73 18409733958879929100
14787075 74 18409729560226607264
15196674 1 18338516313804112001
17834072 33 18412824698380719020
19489759 90 14418129604479230181
200 152 18412260623910614371
20645477 70 18199752449496498934
21267235 1 18412550889973548114
221490 88 18263928916185329587
23272321 79 18409451383816681488
23402539 116 18335415751807977061
23402655 69 18339074883518801269
23559900 14 18262797501097503721
34797466 226 17203614826284060588
350125 39 18411983563781164433
3545911 37 18410577275887755602
4325135 7 18410855468718096782
4340502 62 16732706042963078794
4463277 17 18412265021635592889
474 4 17676779746965951636
474229 33 18411136935353240571
5104073 3 18266741281369621474
7062679 117 18341894121495265503

>  <PUBCHEM_SHAPE_MULTIPOLES>
335.22
13.61
1.83
0.69
0
0
-0.08
0
-1.87
0
-0.09
0
0
-0.86

>  <PUBCHEM_SHAPE_SELFOVERLAP>
687.263

>  <PUBCHEM_SHAPE_VOLUME>
192.6

>  <PUBCHEM_COORDINATE_TYPE>
2
5
10

$$$$
13739
 OpenBabel11092011363D

 32 32  0  0  0  0  0  0  0  0999 V2000
    3.5844   -0.0957    0.1288 O   0  0  0  0  0  0  0  0  0  0  0  0
   -2.6812    2.2971   -0.4954 O   0  0  0  0  0  0  0  0  0  0  0  0
    2.8958   -2.2922    0.1329 O   0  0  0  0  0  0  0  0  0  0  0  0
   -3.6208    0.5262    0.6360 O   0  0  0  0  0  0  0  0  0  0  0  0
    2.6200   -0.1220   -2.4869 O   0  0  0  0  0  0  0  0  0  0  0  0
   -3.5245    4.0467    1.5241 O   0  0  0  0  0  0  0  0  0  0  0  0
    1.2904   -0.5293    0.1305 C   0  0  0  0  0  0  0  0  0  0  0  0
   -1.2905    0.5298    0.1314 C   0  0  0  0  0  0  0  0  0  0  0  0
    0.1866   -1.3821    0.1311 C   0  0  0  0  0  0  0  0  0  0  0  0
   -1.1039   -0.8526    0.1315 C   0  0  0  0  0  0  0  0  0  0  0  0
    1.1037    0.8530    0.1304 C   0  0  0  0  0  0  0  0  0  0  0  0
   -0.1867    1.3826    0.1310 C   0  0  0  0  0  0  0  0  0  0  0  0
    2.6356   -1.0816    0.1313 C   0  0  0  0  0  0  0  0  0  0  0  0
   -2.6356    1.0817    0.1316 C   0  0  0  0  0  0  0  0  0  0  0  0
    4.4833   -0.0655   -0.9850 C   0  0  0  0  0  0  0  0  0  0  0  0
   -3.9559    2.9460   -0.5576 C   0  0  0  0  0  0  0  0  0  0  0  0
    3.7959    0.6072   -2.1576 C   0  0  0  0  0  0  0  0  0  0  0  0
   -4.4507    3.2010    0.8531 C   0  0  0  0  0  0  0  0  0  0  0  0
    0.3104   -2.4619    0.1314 H   0  0  0  0  0  0  0  0  0  0  0  0
   -1.9332   -1.5543    0.1317 H   0  0  0  0  0  0  0  0  0  0  0  0
    1.9330    1.5547    0.1300 H   0  0  0  0  0  0  0  0  0  0  0  0
   -0.3105    2.4624    0.1308 H   0  0  0  0  0  0  0  0  0  0  0  0
    5.3854    0.4921   -0.7109 H   0  0  0  0  0  0  0  0  0  0  0  0
    4.7506   -1.0960   -1.2455 H   0  0  0  0  0  0  0  0  0  0  0  0
   -3.8587    3.8937   -1.0981 H   0  0  0  0  0  0  0  0  0  0  0  0
   -4.6555    2.2875   -1.0849 H   0  0  0  0  0  0  0  0  0  0  0  0
    4.4473    0.6465   -3.0352 H   0  0  0  0  0  0  0  0  0  0  0  0
    3.4871    1.6235   -1.8957 H   0  0  0  0  0  0  0  0  0  0  0  0
   -4.5369    2.2662    1.4136 H   0  0  0  0  0  0  0  0  0  0  0  0
   -5.4217    3.7057    0.8473 H   0  0  0  0  0  0  0  0  0  0  0  0
    2.8932   -1.0208   -2.7384 H   0  0  0  0  0  0  0  0  0  0  0  0
   -3.4496    4.8663    1.0060 H   0  0  0  0  0  0  0  0  0  0  0  0
  1 13  1  0  0  0  0
  1 15  1  0  0  0  0
  2 14  1  0  0  0  0
  2 16  1  0  0  0  0
  3 13  2  0  0  0  0
  4 14  2  0  0  0  0
  5 17  1  0  0  0  0
  5 31  1  0  0  0  0
  6 18  1  0  0  0  0
  6 32  1  0  0  0  0
  7  9  2  0  0  0  0
  7 11  1  0  0  0  0
  7 13  1  0  0  0  0
  8 10  2  0  0  0  0
  8 12  1  0  0  0  0
  8 14  1  0  0  0  0
  9 10  1  0  0  0  0
  9 19  1  0  0  0  0
 10 20  1  0  0  0  0
 11 12  2  0  0  0  0
 11 21  1  0  0  0  0
 12 22  1  0  0  0  0
 15 17  1  0  0  0  0
 15 23  1  0  0  0  0
 15 24  1  0  0  0  0
 16 18  1  0  0  0  0
 16 25  1  0  0  0  0
 16 26  1  0  0  0  0
 17 27  1  0  0  0  0
 17 28  1  0  0  0  0
 18 29  1  0  0  0  0
 18 30  1  0  0  0  0
M  END
>  <PUBCHEM_COMPOUND_CID>
13739

>  <PUBCHEM_CONFORMER_RMSD>
0.8

>  <PUBCHEM_CONFORMER_DIVERSEORDER>
1
57
49
30
42
33
44
14
53
22
19
10
12
45
3
41
11
32
40
15
36
55
29
9
38
4
58
17
37
43
52
24
51
35
20
56
31
39
16
2
21
23
28
34
26
18
25
5
46
47
6
48
8
13
50
7
27
54

>  <PUBCHEM_MMFF94_PARTIAL_CHARGES>
24
1 -0.43
10 -0.15
11 -0.15
12 -0.15
13 0.63
14 0.63
15 0.28
16 0.28
17 0.28
18 0.28
19 0.15
2 -0.43
20 0.15
21 0.15
22 0.15
3 -0.57
31 0.4
32 0.4
4 -0.57
5 -0.68
6 -0.68
7 0.09
8 0.09
9 -0.15

>  <PUBCHEM_EFFECTIVE_ROTOR_COUNT>
8

>  <PUBCHEM_PHARMACOPHORE_FEATURES>
7
1 3 acceptor
1 4 acceptor
1 5 acceptor
1 5 donor
1 6 acceptor
1 6 donor
6 7 8 9 10 11 12 rings

>  <PUBCHEM_HEAVY_ATOM_COUNT>
18

>  <PUBCHEM_ATOM_DEF_STEREO_COUNT>
0

>  <PUBCHEM_ATOM_UDEF_STEREO_COUNT>
0

>  <PUBCHEM_BOND_DEF_STEREO_COUNT>
0

>  <PUBCHEM_BOND_UDEF_STEREO_COUNT>
0

>  <PUBCHEM_ISOTOPIC_ATOM_COUNT>
0

>  <PUBCHEM_COMPONENT_COUNT>
1

>  <PUBCHEM_CACTVS_TAUTO_COUNT>
1

>  <PUBCHEM_CONFORMER_ID>
000035AB00000001

>  <PUBCHEM_MMFF94_ENERGY>
44.2295

>  <PUBCHEM_FEATURE_SELFOVERLAP>
35.523

>  <PUBCHEM_SHAPE_FINGERPRINT>
10968037 39 18410012152543713039
11089746 13 12540695946557521839
11806522 49 18410009918986535353
12236239 1 18410855447243259972
13533116 47 16660916683113605170
13862211 1 18410006628598832378
14251718 22 18411136939420945249
14251732 16 18410855494493175089
14528608 73 18409733958879929100
14787075 74 18409729560226607264
15196674 1 18338516313804112001
17834072 33 18412824698380719020
19489759 90 14418129604479230181
200 152 18412260623910614371
20645477 70 18199752449496498934
21267235 1 18412550889973548114
221490 88 18263928916185329587
23272321 79 18409451383816681488
23402539 116 18335415751807977061
23402655 69 18339074883518801269
23559900 14 18262797501097503721
34797466 226 17203614826284060588
350125 39 18411983563781164433
3545911 37 18410577275887755602
4325135 7 18410855468718096782
4340502 62 16732706042963078794
4463277 17 18412265021635592889
474 4 17676779746965951636
474229 33 18411136935353240571
5104073 3 18266741281369621474
7062679 117 18341894121495265503

>  <PUBCHEM_SHAPE_MULTIPOLES>
335.22
13.61
1.83
0.69
0
0
-0.08
0
-1.87
0
-0.09
0
0
-0.86

>  <PUBCHEM_SHAPE_SELFOVERLAP>
687.263

>  <PUBCHEM_SHAPE_VOLUME>
192.6

>  <PUBCHEM_COORDINATE_TYPE>
2
5
10

$$$$
13739
 OpenBabel11092011363D

 32 32  0  0  0  0  0  0  0  0999 V2000
    3.5844   -0.0957    0.1288 O   0  0  0  0  0  0  0  0  0  0  0  0
   -2.6184    2.4500    0.1343 O   0  0  0  0  0  0  0  0  0  0  0  0
    2.8958   -2.2922    0.1329 O   0  0  0  0  0  0  0  0  0  0  0  0
   -3.6715    0.4029    0.1307 O   0  0  0  0  0  0  0  0  0  0  0  0
    5.5790    1.4419   -1.0991 O   0  0  0  0  0  0  0  0  0  0  0  0
   -1.9413    1.7536    2.7477 O   0  0  0  0  0  0  0  0  0  0  0  0
    1.2904   -0.5293    0.1305 C   0  0  0  0  0  0  0  0  0  0  0  0
   -1.2905    0.5298    0.1314 C   0  0  0  0  0  0  0  0  0  0  0  0
    0.1866   -1.3821    0.1311 C   0  0  0  0  0  0  0  0  0  0  0  0
   -1.1039   -0.8526    0.1315 C   0  0  0  0  0  0  0  0  0  0  0  0
    1.1037    0.8530    0.1304 C   0  0  0  0  0  0  0  0  0  0  0  0
   -0.1867    1.3826    0.1310 C   0  0  0  0  0  0  0  0  0  0  0  0
    2.6356   -1.0816    0.1313 C   0  0  0  0  0  0  0  0  0  0  0  0
   -2.6356    1.0817    0.1316 C   0  0  0  0  0  0  0  0  0  0  0  0
    4.9532   -0.5149    0.1298 C   0  0  0  0  0  0  0  0  0  0  0  0
   -3.2331    3.1029    1.2504 C   0  0  0  0  0  0  0  0  0  0  0  0
    5.6358    0.0208   -1.1140 C   0  0  0  0  0  0  0  0  0  0  0  0
   -2.2672    3.0988    2.4195 C   0  0  0  0  0  0  0  0  0  0  0  0
    0.3104   -2.4619    0.1314 H   0  0  0  0  0  0  0  0  0  0  0  0
   -1.9332   -1.5543    0.1317 H   0  0  0  0  0  0  0  0  0  0  0  0
    1.9330    1.5547    0.1300 H   0  0  0  0  0  0  0  0  0  0  0  0
   -0.3105    2.4624    0.1308 H   0  0  0  0  0  0  0  0  0  0  0  0
    5.4525   -0.1291    1.0252 H   0  0  0  0  0  0  0  0  0  0  0  0
    4.9825   -1.6105    0.1334 H   0  0  0  0  0  0  0  0  0  0  0  0
   -3.4878    4.1327    0.9778 H   0  0  0  0  0  0  0  0  0  0  0  0
   -4.1430    2.5531    1.5164 H   0  0  0  0  0  0  0  0  0  0  0  0
    5.1531   -0.3446   -2.0249 H   0  0  0  0  0  0  0  0  0  0  0  0
    6.6920   -0.2636   -1.1303 H   0  0  0  0  0  0  0  0  0  0  0  0
   -2.7129    3.5727    3.2983 H   0  0  0  0  0  0  0  0  0  0  0  0
   -1.3368    3.6166    2.1667 H   0  0  0  0  0  0  0  0  0  0  0  0
    4.6409    1.6980   -1.1036 H   0  0  0  0  0  0  0  0  0  0  0  0
   -1.5596    1.3437    1.9527 H   0  0  0  0  0  0  0  0  0  0  0  0
  1 13  1  0  0  0  0
  1 15  1  0  0  0  0
  2 14  1  0  0  0  0
  2 16  1  0  0  0  0
  3 13  2  0  0  0  0
  4 14  2  0  0  0  0
  5 17  1  0  0  0  0
  5 31  1  0  0  0  0
  6 18  1  0  0  0  0
  6 32  1  0  0  0  0
  7  9  2  0  0  0  0
  7 11  1  0  0  0  0
  7 13  1  0  0  0  0
  8 10  2  0  0  0  0
  8 12  1  0  0  0  0
  8 14  1  0  0  0  0
  9 10  1  0  0  0  0
  9 19  1  0  0  0  0
 10 20  1  0  0  0  0
 11 12  2  0  0  0  0
 11 21  1  0  0  0  0
 12 22  1  0  0  0  0
 15 17  1  0  0  0  0
 15 23  1  0  0  0  0
 15 24  1  0  0  0  0
 16 18  1  0  0  0  0
 16 25  1  0  0  0  0
 16 26  1  0  0  0  0
 17 27  1  0  0  0  0
 17 28  1  0  0  0  0
 18 29  1  0  0  0  0
 18 30  1  0  0  0  0
M  END
>  <PUBCHEM_COMPOUND_CID>
13739

>  <PUBCHEM_CONFORMER_RMSD>
0.8

>  <PUBCHEM_CONFORMER_DIVERSEORDER>
1
57
49
30
42
33
44
14
53
22
19
10
12
45
3
41
11
32
40
15
36
55
29
9
38
4
58
17
37
43
52
24
51
35
20
56
31
39
16
2
21
23
28
34
26
18
25
5
46
47
6
48
8
13
50
7
27
54

>  <PUBCHEM_MMFF94_PARTIAL_CHARGES>
24
1 -0.43
10 -0.15
11 -0.15
12 -0.15
13 0.63
14 0.63
15 0.28
16 0.28
17 0.28
18 0.28
19 0.15
2 -0.43
20 0.15
21 0.15
22 0.15
3 -0.57
31 0.4
32 0.4
4 -0.57
5 -0.68
6 -0.68
7 0.09
8 0.09
9 -0.15

>  <PUBCHEM_EFFECTIVE_ROTOR_COUNT>
8

>  <PUBCHEM_PHARMACOPHORE_FEATURES>
7
1 3 acceptor
1 4 acceptor
1 5 acceptor
1 5 donor
1 6 acceptor
1 6 donor
6 7 8 9 10 11 12 rings

>  <PUBCHEM_HEAVY_ATOM_COUNT>
18

>  <PUBCHEM_ATOM_DEF_STEREO_COUNT>
0

>  <PUBCHEM_ATOM_UDEF_STEREO_COUNT>
0

>  <PUBCHEM_BOND_DEF_STEREO_COUNT>
0

>  <PUBCHEM_BOND_UDEF_STEREO_COUNT>
0

>  <PUBCHEM_ISOTOPIC_ATOM_COUNT>
0

>  <PUBCHEM_COMPONENT_COUNT>
1

>  <PUBCHEM_CACTVS_TAUTO_COUNT>
1

>  <PUBCHEM_CONFORMER_ID>
000035AB00000001

>  <PUBCHEM_MMFF94_ENERGY>
44.2295

>  <PUBCHEM_FEATURE_SELFOVERLAP>
35.523

>  <PUBCHEM_SHAPE_FINGERPRINT>
10968037 39 18410012152543713039
11089746 13 12540695946557521839
11806522 49 18410009918986535353
12236239 1 18410855447243259972
13533116 47 16660916683113605170
13862211 1 18410006628598832378
14251718 22 18411136939420945249
14251732 16 18410855494493175089
14528608 73 18409733958879929100
14787075 74 18409729560226607264
15196674 1 18338516313804112001
17834072 33 18412824698380719020
19489759 90 14418129604479230181
200 152 18412260623910614371
20645477 70 18199752449496498934
21267235 1 18412550889973548114
221490 88 18263928916185329587
23272321 79 18409451383816681488
23402539 116 18335415751807977061
23402655 69 18339074883518801269
23559900 14 18262797501097503721
34797466 226 17203614826284060588
350125 39 18411983563781164433
3545911 37 18410577275887755602
4325135 7 18410855468718096782
4340502 62 16732706042963078794
4463277 17 18412265021635592889
474 4 17676779746965951636
474229 33 18411136935353240571
5104073 3 18266741281369621474
7062679 117 18341894121495265503

>  <PUBCHEM_SHAPE_MULTIPOLES>
335.22
13.61
1.83
0.69
0
0
-0.08
0
-1.87
0
-0.09
0
0
-0.86

>  <PUBCHEM_SHAPE_SELFOVERLAP>
687.263

>  <PUBCHEM_SHAPE_VOLUME>
192.6

>  <PUBCHEM_COORDINATE_TYPE>
2
5
10

$$$$
13739
 OpenBabel11092011363D

 32 32  0  0  0  0  0  0  0  0999 V2000
    3.5213   -0.2484    0.7586 O   0  0  0  0  0  0  0  0  0  0  0  0
   -3.5178    0.2583   -0.5136 O   0  0  0  0  0  0  0  0  0  0  0  0
    2.9466   -2.1692   -0.3723 O   0  0  0  0  0  0  0  0  0  0  0  0
   -2.9494    2.1624    0.6485 O   0  0  0  0  0  0  0  0  0  0  0  0
    5.1409    1.5260   -1.9797 O   0  0  0  0  0  0  0  0  0  0  0  0
   -7.0219   -0.2247    0.3568 O   0  0  0  0  0  0  0  0  0  0  0  0
    1.2904   -0.5293    0.1305 C   0  0  0  0  0  0  0  0  0  0  0  0
   -1.2905    0.5298    0.1314 C   0  0  0  0  0  0  0  0  0  0  0  0
    0.1866   -1.3821    0.1311 C   0  0  0  0  0  0  0  0  0  0  0  0
   -1.1039   -0.8526    0.1315 C   0  0  0  0  0  0  0  0  0  0  0  0
    1.1037    0.8530    0.1304 C   0  0  0  0  0  0  0  0  0  0  0  0
   -0.1867    1.3826    0.1310 C   0  0  0  0  0  0  0  0  0  0  0  0
    2.6356   -1.0816    0.1313 C   0  0  0  0  0  0  0  0  0  0  0  0
   -2.6356    1.0817    0.1316 C   0  0  0  0  0  0  0  0  0  0  0  0
    4.6110    0.2470   -0.0266 C   0  0  0  0  0  0  0  0  0  0  0  0
   -4.6304   -0.2225    0.2483 C   0  0  0  0  0  0  0  0  0  0  0  0
    4.0587    1.0475   -1.1903 C   0  0  0  0  0  0  0  0  0  0  0  0
   -5.9167    0.2391   -0.4092 C   0  0  0  0  0  0  0  0  0  0  0  0
    0.3104   -2.4619    0.1314 H   0  0  0  0  0  0  0  0  0  0  0  0
   -1.9332   -1.5543    0.1317 H   0  0  0  0  0  0  0  0  0  0  0  0
    1.9330    1.5547    0.1300 H   0  0  0  0  0  0  0  0  0  0  0  0
   -0.3105    2.4624    0.1308 H   0  0  0  0  0  0  0  0  0  0  0  0
    5.2491    0.8840    0.5953 H   0  0  0  0  0  0  0  0  0  0  0  0
    5.1901   -0.6065   -0.3975 H   0  0  0  0  0  0  0  0  0  0  0  0
   -4.6015   -1.3166    0.2889 H   0  0  0  0  0  0  0  0  0  0  0  0
   -4.5611    0.1889    1.2617 H   0  0  0  0  0  0  0  0  0  0  0  0
    3.4665    1.8998   -0.8453 H   0  0  0  0  0  0  0  0  0  0  0  0
    3.4380    0.4181   -1.8348 H   0  0  0  0  0  0  0  0  0  0  0  0
   -6.0045   -0.1606   -1.4231 H   0  0  0  0  0  0  0  0  0  0  0  0
   -5.9717    1.3314   -0.4490 H   0  0  0  0  0  0  0  0  0  0  0  0
    5.6843    2.1012   -1.4144 H   0  0  0  0  0  0  0  0  0  0  0  0
   -6.9211    0.1281    1.2575 H   0  0  0  0  0  0  0  0  0  0  0  0
  1 13  1  0  0  0  0
  1 15  1  0  0  0  0
  2 14  1  0  0  0  0
  2 16  1  0  0  0  0
  3 13  2  0  0  0  0
  4 14  2  0  0  0  0
  5 17  1  0  0  0  0
  5 31  1  0  0  0  0
  6 18  1  0  0  0  0
  6 32  1  0  0  0  0
  7  9  2  0  0  0  0
  7 11  1  0  0  0  0
  7 13  1  0  0  0  0
  8 10  2  0  0  0  0
  8 12  1  0  0  0  0
  8 14  1  0  0  0  0
  9 10  1  0  0  0  0
  9 19  1  0  0  0  0
 10 20  1  0  0  0  0
 11 12  2  0  0  0  0
 11 21  1  0  0  0  0
 12 22  1  0  0  0  0
 15 17  1  0  0  0  0
 15 23  1  0  0  0  0
 15 24  1  0  0  0  0
 16 18  1  0  0  0  0
 16 25  1  0  0  0  0
 16 26  1  0  0  0  0
 17 27  1  0  0  0  0
 17 28  1  0  0  0  0
 18 29  1  0  0  0  0
 18 30  1  0  0  0  0
M  END
>  <PUBCHEM_COMPOUND_CID>
13739

>  <PUBCHEM_CONFORMER_RMSD>
0.8

>  <PUBCHEM_CONFORMER_DIVERSEORDER>
1
57
49
30
42
33
44
14
53
22
19
10
12
45
3
41
11
32
40
15
36
55
29
9
38
4
58
17
37
43
52
24
51
35
20
56
31
39
16
2
21
23
28
34
26
18
25
5
46
47
6
48
8
13
50
7
27
54

>  <PUBCHEM_MMFF94_PARTIAL_CHARGES>
24
1 -0.43
10 -0.15
11 -0.15
12 -0.15
13 0.63
14 0.63
15 0.28
16 0.28
17 0.28
18 0.28
19 0.15
2 -0.43
20 0.15
21 0.15
22 0.15
3 -0.57
31 0.4
32 0.4
4 -0.57
5 -0.68
6 -0.68
7 0.09
8 0.09
9 -0.15

>  <PUBCHEM_EFFECTIVE_ROTOR_COUNT>
8

>  <PUBCHEM_PHARMACOPHORE_FEATURES>
7
1 3 acceptor
1 4 acceptor
1 5 acceptor
1 5 donor
1 6 acceptor
1 6 donor
6 7 8 9 10 11 12 rings

>  <PUBCHEM_HEAVY_ATOM_COUNT>
18

>  <PUBCHEM_ATOM_DEF_STEREO_COUNT>
0

>  <PUBCHEM_ATOM_UDEF_STEREO_COUNT>
0

>  <PUBCHEM_BOND_DEF_STEREO_COUNT>
0

>  <PUBCHEM_BOND_UDEF_STEREO_COUNT>
0

>  <PUBCHEM_ISOTOPIC_ATOM_COUNT>
0

>  <PUBCHEM_COMPONENT_COUNT>
1

>  <PUBCHEM_CACTVS_TAUTO_COUNT>
1

>  <PUBCHEM_CONFORMER_ID>
000035AB00000001

>  <PUBCHEM_MMFF94_ENERGY>
44.2295

>  <PUBCHEM_FEATURE_SELFOVERLAP>
35.523

>  <PUBCHEM_SHAPE_FINGERPRINT>
10968037 39 18410012152543713039
11089746 13 12540695946557521839
11806522 49 18410009918986535353
12236239 1 18410855447243259972
13533116 47 16660916683113605170
13862211 1 18410006628598832378
14251718 22 18411136939420945249
14251732 16 18410855494493175089
14528608 73 18409733958879929100
14787075 74 18409729560226607264
15196674 1 18338516313804112001
17834072 33 18412824698380719020
19489759 90 14418129604479230181
200 152 18412260623910614371
20645477 70 18199752449496498934
21267235 1 18412550889973548114
221490 88 18263928916185329587
23272321 79 18409451383816681488
23402539 116 18335415751807977061
23402655 69 18339074883518801269
23559900 14 18262797501097503721
34797466 226 17203614826284060588
350125 39 18411983563781164433
3545911 37 18410577275887755602
4325135 7 18410855468718096782
4340502 62 16732706042963078794
4463277 17 18412265021635592889
474 4 17676779746965951636
474229 33 18411136935353240571
5104073 3 18266741281369621474
7062679 117 18341894121495265503

>  <PUBCHEM_SHAPE_MULTIPOLES>
335.22
13.61
1.83
0.69
0
0
-0.08
0
-1.87
0
-0.09
0
0
-0.86

>  <PUBCHEM_SHAPE_SELFOVERLAP>
687.263

>  <PUBCHEM_SHAPE_VOLUME>
192.6

>  <PUBCHEM_COORDINATE_TYPE>
2
5
10

$$$$
13739
 OpenBabel11092011363D

 32 32  0  0  0  0  0  0  0  0999 V2000
    3.5213   -0.2484    0.7586 O   0  0  0  0  0  0  0  0  0  0  0  0
   -3.5178    0.2583   -0.5136 O   0  0  0  0  0  0  0  0  0  0  0  0
    2.9466   -2.1692   -0.3723 O   0  0  0  0  0  0  0  0  0  0  0  0
   -2.9494    2.1624    0.6485 O   0  0  0  0  0  0  0  0  0  0  0  0
    4.9114   -2.6705    0.5314 O   0  0  0  0  0  0  0  0  0  0  0  0
   -6.5504    0.4831    1.4920 O   0  0  0  0  0  0  0  0  0  0  0  0
    1.2904   -0.5293    0.1305 C   0  0  0  0  0  0  0  0  0  0  0  0
   -1.2905    0.5298    0.1314 C   0  0  0  0  0  0  0  0  0  0  0  0
    0.1866   -1.3821    0.1311 C   0  0  0  0  0  0  0  0  0  0  0  0
   -1.1039   -0.8526    0.1315 C   0  0  0  0  0  0  0  0  0  0  0  0
    1.1037    0.8530    0.1304 C   0  0  0  0  0  0  0  0  0  0  0  0
   -0.1867    1.3826    0.1310 C   0  0  0  0  0  0  0  0  0  0  0  0
    2.6356   -1.0816    0.1313 C   0  0  0  0  0  0  0  0  0  0  0  0
   -2.6356    1.0817    0.1316 C   0  0  0  0  0  0  0  0  0  0  0  0
    4.8787   -0.2875    0.3053 C   0  0  0  0  0  0  0  0  0  0  0  0
   -4.6304   -0.2225    0.2483 C   0  0  0  0  0  0  0  0  0  0  0  0
    5.5760   -1.4789    0.9333 C   0  0  0  0  0  0  0  0  0  0  0  0
   -5.4541    0.9598    0.7213 C   0  0  0  0  0  0  0  0  0  0  0  0
    0.3104   -2.4619    0.1314 H   0  0  0  0  0  0  0  0  0  0  0  0
   -1.9332   -1.5543    0.1317 H   0  0  0  0  0  0  0  0  0  0  0  0
    1.9330    1.5547    0.1300 H   0  0  0  0  0  0  0  0  0  0  0  0
   -0.3105    2.4624    0.1308 H   0  0  0  0  0  0  0  0  0  0  0  0
    4.8966   -0.3770   -0.7862 H   0  0  0  0  0  0  0  0  0  0  0  0
    5.3745    0.6419    0.6082 H   0  0  0  0  0  0  0  0  0  0  0  0
   -5.2440   -0.8818   -0.3751 H   0  0  0  0  0  0  0  0  0  0  0  0
   -4.2463   -0.7784    1.1111 H   0  0  0  0  0  0  0  0  0  0  0  0
    5.5678   -1.4183    2.0253 H   0  0  0  0  0  0  0  0  0  0  0  0
    6.6113   -1.5498    0.5869 H   0  0  0  0  0  0  0  0  0  0  0  0
   -5.8463    1.5288   -0.1260 H   0  0  0  0  0  0  0  0  0  0  0  0
   -4.8625    1.6261    1.3568 H   0  0  0  0  0  0  0  0  0  0  0  0
    3.9956   -2.6186    0.8544 H   0  0  0  0  0  0  0  0  0  0  0  0
   -6.1850   -0.0312    2.2321 H   0  0  0  0  0  0  0  0  0  0  0  0
  1 13  1  0  0  0  0
  1 15  1  0  0  0  0
  2 14  1  0  0  0  0
  2 16  1  0  0  0  0
  3 13  2  0  0  0  0
  4 14  2  0  0  0  0
  5 17  1  0  0  0  0
  5 31  1  0  0  0  0
  6 18  1  0  0  0  0
  6 32  1  0  0  0  0
  7  9  2  0  0  0  0
  7 11  1  0  0  0  0
  7 13  1  0  0  0  0
  8 10  2  0  0  0  0
  8 12  1  0  0  0  0
  8 14  1  0  0  0  0
  9 10  1  0  0  0  0
  9 19  1  0  0  0  0
 10 20  1  0  0  0  0
 11 12  2  0  0  0  0
 11 21  1  0  0  0  0
 12 22  1  0  0  0  0
 15 17  1  0  0  0  0
 15 23  1  0  0  0  0
 15 24  1  0  0  0  0
 16 18  1  0  0  0  0
 16 25  1  0  0  0  0
 16 26  1  0  0  0  0
 17 27  1  0  0  0  0
 17 28  1  0  0  0  0
 18 29  1  0  0  0  0
 18 30  1  0  0  0  0
M  END
>  <PUBCHEM_COMPOUND_CID>
13739

>  <PUBCHEM_CONFORMER_RMSD>
0.8

>  <PUBCHEM_CONFORMER_DIVERSEORDER>
1
57
49
30
42
33
44
14
53
22
19
10
12
45
3
41
11
32
40
15
36
55
29
9
38
4
58
17
37
43
52
24
51
35
20
56
31
39
16
2
21
23
28
34
26
18
25
5
46
47
6
48
8
13
50
7
27
54

>  <PUBCHEM_MMFF94_PARTIAL_CHARGES>
24
1 -0.43
10 -0.15
11 -0.15
12 -0.15
13 0.63
14 0.63
15 0.28
16 0.28
17 0.28
18 0.28
19 0.15
2 -0.43
20 0.15
21 0.15
22 0.15
3 -0.57
31 0.4
32 0.4
4 -0.57
5 -0.68
6 -0.68
7 0.09
8 0.09
9 -0.15

>  <PUBCHEM_EFFECTIVE_ROTOR_COUNT>
8

>  <PUBCHEM_PHARMACOPHORE_FEATURES>
7
1 3 acceptor
1 4 acceptor
1 5 acceptor
1 5 donor
1 6 acceptor
1 6 donor
6 7 8 9 10 11 12 rings

>  <PUBCHEM_HEAVY_ATOM_COUNT>
18

>  <PUBCHEM_ATOM_DEF_STEREO_COUNT>
0

>  <PUBCHEM_ATOM_UDEF_STEREO_COUNT>
0

>  <PUBCHEM_BOND_DEF_STEREO_COUNT>
0

>  <PUBCHEM_BOND_UDEF_STEREO_COUNT>
0

>  <PUBCHEM_ISOTOPIC_ATOM_COUNT>
0

>  <PUBCHEM_COMPONENT_COUNT>
1

>  <PUBCHEM_CACTVS_TAUTO_COUNT>
1

>  <PUBCHEM_CONFORMER_ID>
000035AB00000001

>  <PUBCHEM_MMFF94_ENERGY>
44.2295

>  <PUBCHEM_FEATURE_SELFOVERLAP>
35.523

>  <PUBCHEM_SHAPE_FINGERPRINT>
10968037 39 18410012152543713039
11089746 13 12540695946557521839
11806522 49 18410009918986535353
12236239 1 18410855447243259972
13533116 47 16660916683113605170
13862211 1 18410006628598832378
14251718 22 18411136939420945249
14251732 16 18410855494493175089
14528608 73 18409733958879929100
14787075 74 18409729560226607264
15196674 1 18338516313804112001
17834072 33 18412824698380719020
19489759 90 14418129604479230181
200 152 18412260623910614371
20645477 70 18199752449496498934
21267235 1 18412550889973548114
221490 88 18263928916185329587
23272321 79 18409451383816681488
23402539 116 18335415751807977061
23402655 69 18339074883518801269
23559900 14 18262797501097503721
34797466 226 17203614826284060588
350125 39 18411983563781164433
3545911 37 18410577275887755602
4325135 7 18410855468718096782
4340502 62 16732706042963078794
4463277 17 18412265021635592889
474 4 17676779746965951636
474229 33 18411136935353240571
5104073 3 18266741281369621474
7062679 117 18341894121495265503

>  <PUBCHEM_SHAPE_MULTIPOLES>
335.22
13.61
1.83
0.69
0
0
-0.08
0
-1.87
0
-0.09
0
0
-0.86

>  <PUBCHEM_SHAPE_SELFOVERLAP>
687.263

>  <PUBCHEM_SHAPE_VOLUME>
192.6

>  <PUBCHEM_COORDINATE_TYPE>
2
5
10

$$$$
13739
 OpenBabel11092011363D

 32 32  0  0  0  0  0  0  0  0999 V2000
    3.5844   -0.0957    0.1288 O   0  0  0  0  0  0  0  0  0  0  0  0
   -3.5178    0.2583   -0.5136 O   0  0  0  0  0  0  0  0  0  0  0  0
    2.8958   -2.2922    0.1329 O   0  0  0  0  0  0  0  0  0  0  0  0
   -2.9494    2.1624    0.6485 O   0  0  0  0  0  0  0  0  0  0  0  0
    5.9160   -0.5622   -2.6308 O   0  0  0  0  0  0  0  0  0  0  0  0
   -4.0675    2.9969   -0.7333 O   0  0  0  0  0  0  0  0  0  0  0  0
    1.2904   -0.5293    0.1305 C   0  0  0  0  0  0  0  0  0  0  0  0
   -1.2905    0.5298    0.1314 C   0  0  0  0  0  0  0  0  0  0  0  0
    0.1866   -1.3821    0.1311 C   0  0  0  0  0  0  0  0  0  0  0  0
   -1.1039   -0.8526    0.1315 C   0  0  0  0  0  0  0  0  0  0  0  0
    1.1037    0.8530    0.1304 C   0  0  0  0  0  0  0  0  0  0  0  0
   -0.1867    1.3826    0.1310 C   0  0  0  0  0  0  0  0  0  0  0  0
    2.6356   -1.0816    0.1313 C   0  0  0  0  0  0  0  0  0  0  0  0
   -2.6356    1.0817    0.1316 C   0  0  0  0  0  0  0  0  0  0  0  0
    4.8327   -0.4006   -0.5021 C   0  0  0  0  0  0  0  0  0  0  0  0
   -4.1808    0.7941   -1.6638 C   0  0  0  0  0  0  0  0  0  0  0  0
    4.6802   -0.2434   -2.0028 C   0  0  0  0  0  0  0  0  0  0  0  0
   -4.9662    2.0248   -1.2536 C   0  0  0  0  0  0  0  0  0  0  0  0
    0.3104   -2.4619    0.1314 H   0  0  0  0  0  0  0  0  0  0  0  0
   -1.9332   -1.5543    0.1317 H   0  0  0  0  0  0  0  0  0  0  0  0
    1.9330    1.5547    0.1300 H   0  0  0  0  0  0  0  0  0  0  0  0
   -0.3105    2.4624    0.1308 H   0  0  0  0  0  0  0  0  0  0  0  0
    5.6052    0.2820   -0.1318 H   0  0  0  0  0  0  0  0  0  0  0  0
    5.1042   -1.4338   -0.2572 H   0  0  0  0  0  0  0  0  0  0  0  0
   -3.4386    1.0590   -2.4245 H   0  0  0  0  0  0  0  0  0  0  0  0
   -4.8618    0.0316   -2.0587 H   0  0  0  0  0  0  0  0  0  0  0  0
    4.3979    0.7783   -2.2721 H   0  0  0  0  0  0  0  0  0  0  0  0
    3.9283   -0.9364   -2.3914 H   0  0  0  0  0  0  0  0  0  0  0  0
   -5.7009    1.7820   -0.4810 H   0  0  0  0  0  0  0  0  0  0  0  0
   -5.4816    2.4698   -2.1104 H   0  0  0  0  0  0  0  0  0  0  0  0
    6.5826    0.0646   -2.3014 H   0  0  0  0  0  0  0  0  0  0  0  0
   -3.4141    3.1909   -1.4270 H   0  0  0  0  0  0  0  0  0  0  0  0
  1 13  1  0  0  0  0
  1 15  1  0  0  0  0
  2 14  1  0  0  0  0
  2 16  1  0  0  0  0
  3 13  2  0  0  0  0
  4 14  2  0  0  0  0
  5 17  1  0  0  0  0
  5 31  1  0  0  0  0
  6 18  1  0  0  0  0
  6 32  1  0  0  0  0
  7  9  2  0  0  0  0
  7 11  1  0  0  0  0
  7 13  1  0  0  0  0
  8 10  2  0  0  0  0
  8 12  1  0  0  0  0
  8 14  1  0  0  0  0
  9 10  1  0  0  0  0
  9 19  1  0  0  0  0
 10 20  1  0  0  0  0
 11 12  2  0  0  0  0
 11 21  1  0  0  0  0
 12 22  1  0  0  0  0
 15 17  1  0  0  0  0
 15 23  1  0  0  0  0
 15 24  1  0  0  0  0
 16 18  1  0  0  0  0
 16 25  1  0  0  0  0
 16 26  1  0  0  0  0
 17 27  1  0  0  0  0
 17 28  1  0  0  0  0
 18 29  1  0  0  0  0
 18 30  1  0  0  0  0
M  END
>  <PUBCHEM_COMPOUND_CID>
13739

>  <PUBCHEM_CONFORMER_RMSD>
0.8

>  <PUBCHEM_CONFORMER_DIVERSEORDER>
1
57
49
30
42
33
44
14
53
22
19
10
12
45
3
41
11
32
40
15
36
55
29
9
38
4
58
17
37
43
52
24
51
35
20
56
31
39
16
2
21
23
28
34
26
18
25
5
46
47
6
48
8
13
50
7
27
54

>  <PUBCHEM_MMFF94_PARTIAL_CHARGES>
24
1 -0.43
10 -0.15
11 -0.15
12 -0.15
13 0.63
14 0.63
15 0.28
16 0.28
17 0.28
18 0.28
19 0.15
2 -0.43
20 0.15
21 0.15
22 0.15
3 -0.57
31 0.4
32 0.4
4 -0.57
5 -0.68
6 -0.68
7 0.09
8 0.09
9 -0.15

>  <PUBCHEM_EFFECTIVE_ROTOR_COUNT>
8

>  <PUBCHEM_PHARMACOPHORE_FEATURES>
7
1 3 acceptor
1 4 acceptor
1 5 acceptor
1 5 donor
1 6 acceptor
1 6 donor
6 7 8 9 10 11 12 rings

>  <PUBCHEM_HEAVY_ATOM_COUNT>
18

>  <PUBCHEM_ATOM_DEF_STEREO_COUNT>
0

>  <PUBCHEM_ATOM_UDEF_STEREO_COUNT>
0

>  <PUBCHEM_BOND_DEF_STEREO_COUNT>
0

>  <PUBCHEM_BOND_UDEF_STEREO_COUNT>
0

>  <PUBCHEM_ISOTOPIC_ATOM_COUNT>
0

>  <PUBCHEM_COMPONENT_COUNT>
1

>  <PUBCHEM_CACTVS_TAUTO_COUNT>
1

>  <PUBCHEM_CONFORMER_ID>
000035AB00000001

>  <PUBCHEM_MMFF94_ENERGY>
44.2295

>  <PUBCHEM_FEATURE_SELFOVERLAP>
35.523

>  <PUBCHEM_SHAPE_FINGERPRINT>
10968037 39 18410012152543713039
11089746 13 12540695946557521839
11806522 49 18410009918986535353
12236239 1 18410855447243259972
13533116 47 16660916683113605170
13862211 1 18410006628598832378
14251718 22 18411136939420945249
14251732 16 18410855494493175089
14528608 73 18409733958879929100
14787075 74 18409729560226607264
15196674 1 18338516313804112001
17834072 33 18412824698380719020
19489759 90 14418129604479230181
200 152 18412260623910614371
20645477 70 18199752449496498934
21267235 1 18412550889973548114
221490 88 18263928916185329587
23272321 79 18409451383816681488
23402539 116 18335415751807977061
23402655 69 18339074883518801269
23559900 14 18262797501097503721
34797466 226 17203614826284060588
350125 39 18411983563781164433
3545911 37 18410577275887755602
4325135 7 18410855468718096782
4340502 62 16732706042963078794
4463277 17 18412265021635592889
474 4 17676779746965951636
474229 33 18411136935353240571
5104073 3 18266741281369621474
7062679 117 18341894121495265503

>  <PUBCHEM_SHAPE_MULTIPOLES>
335.22
13.61
1.83
0.69
0
0
-0.08
0
-1.87
0
-0.09
0
0
-0.86

>  <PUBCHEM_SHAPE_SELFOVERLAP>
687.263

>  <PUBCHEM_SHAPE_VOLUME>
192.6

>  <PUBCHEM_COORDINATE_TYPE>
2
5
10

$$$$
13739
 OpenBabel11092011363D

 32 32  0  0  0  0  0  0  0  0999 V2000
    2.6843   -2.2870    0.7769 O   0  0  0  0  0  0  0  0  0  0  0  0
   -2.6184    2.4500    0.1343 O   0  0  0  0  0  0  0  0  0  0  0  0
    3.6183   -0.5333   -0.3854 O   0  0  0  0  0  0  0  0  0  0  0  0
   -3.6715    0.4029    0.1307 O   0  0  0  0  0  0  0  0  0  0  0  0
    2.6557   -4.7291   -1.9258 O   0  0  0  0  0  0  0  0  0  0  0  0
   -4.8710    1.2907   -1.0625 O   0  0  0  0  0  0  0  0  0  0  0  0
    1.2904   -0.5293    0.1305 C   0  0  0  0  0  0  0  0  0  0  0  0
   -1.2905    0.5298    0.1314 C   0  0  0  0  0  0  0  0  0  0  0  0
    0.1866   -1.3821    0.1311 C   0  0  0  0  0  0  0  0  0  0  0  0
   -1.1039   -0.8526    0.1315 C   0  0  0  0  0  0  0  0  0  0  0  0
    1.1037    0.8530    0.1304 C   0  0  0  0  0  0  0  0  0  0  0  0
   -0.1867    1.3826    0.1310 C   0  0  0  0  0  0  0  0  0  0  0  0
    2.6356   -1.0816    0.1313 C   0  0  0  0  0  0  0  0  0  0  0  0
   -2.6356    1.0817    0.1316 C   0  0  0  0  0  0  0  0  0  0  0  0
    3.1353   -3.4116    0.0146 C   0  0  0  0  0  0  0  0  0  0  0  0
   -3.8871    3.1133    0.1379 C   0  0  0  0  0  0  0  0  0  0  0  0
    2.2173   -3.6017   -1.1775 C   0  0  0  0  0  0  0  0  0  0  0  0
   -4.6662    2.6979   -1.0951 C   0  0  0  0  0  0  0  0  0  0  0  0
    0.3104   -2.4619    0.1314 H   0  0  0  0  0  0  0  0  0  0  0  0
   -1.9332   -1.5543    0.1317 H   0  0  0  0  0  0  0  0  0  0  0  0
    1.9330    1.5547    0.1300 H   0  0  0  0  0  0  0  0  0  0  0  0
   -0.3105    2.4624    0.1308 H   0  0  0  0  0  0  0  0  0  0  0  0
    4.1602   -3.2329   -0.3282 H   0  0  0  0  0  0  0  0  0  0  0  0
    3.1096   -4.3004    0.6555 H   0  0  0  0  0  0  0  0  0  0  0  0
   -4.4415    2.8392    1.0420 H   0  0  0  0  0  0  0  0  0  0  0  0
   -3.7134    4.1953    0.1224 H   0  0  0  0  0  0  0  0  0  0  0  0
    2.2169   -2.7221   -1.8273 H   0  0  0  0  0  0  0  0  0  0  0  0
    1.1933   -3.8052   -0.8504 H   0  0  0  0  0  0  0  0  0  0  0  0
   -4.1188    2.9483   -2.0079 H   0  0  0  0  0  0  0  0  0  0  0  0
   -5.6489    3.1788   -1.1237 H   0  0  0  0  0  0  0  0  0  0  0  0
    3.5592   -4.5431   -2.2339 H   0  0  0  0  0  0  0  0  0  0  0  0
   -5.3460    1.0841   -0.2394 H   0  0  0  0  0  0  0  0  0  0  0  0
  1 13  1  0  0  0  0
  1 15  1  0  0  0  0
  2 14  1  0  0  0  0
  2 16  1  0  0  0  0
  3 13  2  0  0  0  0
  4 14  2  0  0  0  0
  5 17  1  0  0  0  0
  5 31  1  0  0  0  0
  6 18  1  0  0  0  0
  6 32  1  0  0  0  0
  7  9  2  0  0  0  0
  7 11  1  0  0  0  0
  7 13  1  0  0  0  0
  8 10  2  0  0  0  0
  8 12  1  0  0  0  0
  8 14  1  0  0  0  0
  9 10  1  0  0  0  0
  9 19  1  0  0  0  0
 10 20  1  0  0  0  0
 11 12  2  0  0  0  0
 11 21  1  0  0  0  0
 12 22  1  0  0  0  0
 15 17  1  0  0  0  0
 15 23  1  0  0  0  0
 15 24  1  0  0  0  0
 16 18  1  0  0  0  0
 16 25  1  0  0  0  0
 16 26  1  0  0  0  0
 17 27  1  0  0  0  0
 17 28  1  0  0  0  0
 18 29  1  0  0  0  0
 18 30  1  0  0  0  0
M  END
>  <PUBCHEM_COMPOUND_CID>
13739

>  <PUBCHEM_CONFORMER_RMSD>
0.8

>  <PUBCHEM_CONFORMER_DIVERSEORDER>
1
57
49
30
42
33
44
14
53
22
19
10
12
45
3
41
11
32
40
15
36
55
29
9
38
4
58
17
37
43
52
24
51
35
20
56
31
39
16
2
21
23
28
34
26
18
25
5
46
47
6
48
8
13
50
7
27
54

>  <PUBCHEM_MMFF94_PARTIAL_CHARGES>
24
1 -0.43
10 -0.15
11 -0.15
12 -0.15
13 0.63
14 0.63
15 0.28
16 0.28
17 0.28
18 0.28
19 0.15
2 -0.43
20 0.15
21 0.15
22 0.15
3 -0.57
31 0.4
32 0.4
4 -0.57
5 -0.68
6 -0.68
7 0.09
8 0.09
9 -0.15

>  <PUBCHEM_EFFECTIVE_ROTOR_COUNT>
8

>  <PUBCHEM_PHARMACOPHORE_FEATURES>
7
1 3 acceptor
1 4 acceptor
1 5 acceptor
1 5 donor
1 6 acceptor
1 6 donor
6 7 8 9 10 11 12 rings

>  <PUBCHEM_HEAVY_ATOM_COUNT>
18

>  <PUBCHEM_ATOM_DEF_STEREO_COUNT>
0

>  <PUBCHEM_ATOM_UDEF_STEREO_COUNT>
0

>  <PUBCHEM_BOND_DEF_STEREO_COUNT>
0

>  <PUBCHEM_BOND_UDEF_STEREO_COUNT>
0

>  <PUBCHEM_ISOTOPIC_ATOM_COUNT>
0

>  <PUBCHEM_COMPONENT_COUNT>
1

>  <PUBCHEM_CACTVS_TAUTO_COUNT>
1

>  <PUBCHEM_CONFORMER_ID>
000035AB00000001

>  <PUBCHEM_MMFF94_ENERGY>
44.2295

>  <PUBCHEM_FEATURE_SELFOVERLAP>
35.523

>  <PUBCHEM_SHAPE_FINGERPRINT>
10968037 39 18410012152543713039
11089746 13 12540695946557521839
11806522 49 18410009918986535353
12236239 1 18410855447243259972
13533116 47 16660916683113605170
13862211 1 18410006628598832378
14251718 22 18411136939420945249
14251732 16 18410855494493175089
14528608 73 18409733958879929100
14787075 74 18409729560226607264
15196674 1 18338516313804112001
17834072 33 18412824698380719020
19489759 90 14418129604479230181
200 152 18412260623910614371
20645477 70 18199752449496498934
21267235 1 18412550889973548114
221490 88 18263928916185329587
23272321 79 18409451383816681488
23402539 116 18335415751807977061
23402655 69 18339074883518801269
23559900 14 18262797501097503721
34797466 226 17203614826284060588
350125 39 18411983563781164433
3545911 37 18410577275887755602
4325135 7 18410855468718096782
4340502 62 16732706042963078794
4463277 17 18412265021635592889
474 4 17676779746965951636
474229 33 18411136935353240571
5104073 3 18266741281369621474
7062679 117 18341894121495265503

>  <PUBCHEM_SHAPE_MULTIPOLES>
335.22
13.61
1.83
0.69
0
0
-0.08
0
-1.87
0
-0.09
0
0
-0.86

>  <PUBCHEM_SHAPE_SELFOVERLAP>
687.263

>  <PUBCHEM_SHAPE_VOLUME>
192.6

>  <PUBCHEM_COORDINATE_TYPE>
2
5
10

$$$$
13739
 OpenBabel11092011363D

 32 32  0  0  0  0  0  0  0  0999 V2000
    2.6843   -2.2870    0.7769 O   0  0  0  0  0  0  0  0  0  0  0  0
   -3.5178    0.2583   -0.5136 O   0  0  0  0  0  0  0  0  0  0  0  0
    3.6183   -0.5333   -0.3854 O   0  0  0  0  0  0  0  0  0  0  0  0
   -2.9494    2.1624    0.6485 O   0  0  0  0  0  0  0  0  0  0  0  0
    4.6033   -1.9355   -1.2342 O   0  0  0  0  0  0  0  0  0  0  0  0
   -4.0675    2.9969   -0.7333 O   0  0  0  0  0  0  0  0  0  0  0  0
    1.2904   -0.5293    0.1305 C   0  0  0  0  0  0  0  0  0  0  0  0
   -1.2905    0.5298    0.1314 C   0  0  0  0  0  0  0  0  0  0  0  0
    0.1866   -1.3821    0.1311 C   0  0  0  0  0  0  0  0  0  0  0  0
   -1.1039   -0.8526    0.1315 C   0  0  0  0  0  0  0  0  0  0  0  0
    1.1037    0.8530    0.1304 C   0  0  0  0  0  0  0  0  0  0  0  0
   -0.1867    1.3826    0.1310 C   0  0  0  0  0  0  0  0  0  0  0  0
    2.6356   -1.0816    0.1313 C   0  0  0  0  0  0  0  0  0  0  0  0
   -2.6356    1.0817    0.1316 C   0  0  0  0  0  0  0  0  0  0  0  0
    3.9596   -2.9339    0.8443 C   0  0  0  0  0  0  0  0  0  0  0  0
   -4.1808    0.7941   -1.6638 C   0  0  0  0  0  0  0  0  0  0  0  0
    4.4634   -3.1826   -0.5644 C   0  0  0  0  0  0  0  0  0  0  0  0
   -4.9662    2.0248   -1.2536 C   0  0  0  0  0  0  0  0  0  0  0  0
    0.3104   -2.4619    0.1314 H   0  0  0  0  0  0  0  0  0  0  0  0
   -1.9332   -1.5543    0.1317 H   0  0  0  0  0  0  0  0  0  0  0  0
    1.9330    1.5547    0.1300 H   0  0  0  0  0  0  0  0  0  0  0  0
   -0.3105    2.4624    0.1308 H   0  0  0  0  0  0  0  0  0  0  0  0
    4.6651   -2.2945    1.3857 H   0  0  0  0  0  0  0  0  0  0  0  0
    3.8405   -3.8853    1.3752 H   0  0  0  0  0  0  0  0  0  0  0  0
   -3.4386    1.0590   -2.4245 H   0  0  0  0  0  0  0  0  0  0  0  0
   -4.8618    0.0316   -2.0587 H   0  0  0  0  0  0  0  0  0  0  0  0
    3.7739   -3.8148   -1.1309 H   0  0  0  0  0  0  0  0  0  0  0  0
    5.4496   -3.6557   -0.5463 H   0  0  0  0  0  0  0  0  0  0  0  0
   -5.7009    1.7820   -0.4810 H   0  0  0  0  0  0  0  0  0  0  0  0
   -5.4816    2.4698   -2.1104 H   0  0  0  0  0  0  0  0  0  0  0  0
    3.7243   -1.5209   -1.2685 H   0  0  0  0  0  0  0  0  0  0  0  0
   -3.4141    3.1909   -1.4270 H   0  0  0  0  0  0  0  0  0  0  0  0
  1 13  1  0  0  0  0
  1 15  1  0  0  0  0
  2 14  1  0  0  0  0
  2 16  1  0  0  0  0
  3 13  2  0  0  0  0
  4 14  2  0  0  0  0
  5 17  1  0  0  0  0
  5 31  1  0  0  0  0
  6 18  1  0  0  0  0
  6 32  1  0  0  0  0
  7  9  2  0  0  0  0
  7 11  1  0  0  0  0
  7 13  1  0  0  0  0
  8 10  2  0  0  0  0
  8 12  1  0  0  0  0
  8 14  1  0  0  0  0
  9 10  1  0  0  0  0
  9 19  1  0  0  0  0
 10 20  1  0  0  0  0
 11 12  2  0  0  0  0
 11 21  1  0  0  0  0
 12 22  1  0  0  0  0
 15 17  1  0  0  0  0
 15 23  1  0  0  0  0
 15 24  1  0  0  0  0
 16 18  1  0  0  0  0
 16 25  1  0  0  0  0
 16 26  1  0  0  0  0
 17 27  1  0  0  0  0
 17 28  1  0  0  0  0
 18 29  1  0  0  0  0
 18 30  1  0  0  0  0
M  END
>  <PUBCHEM_COMPOUND_CID>
13739

>  <PUBCHEM_CONFORMER_RMSD>
0.8

>  <PUBCHEM_CONFORMER_DIVERSEORDER>
1
57
49
30
42
33
44
14
53
22
19
10
12
45
3
41
11
32
40
15
36
55
29
9
38
4
58
17
37
43
52
24
51
35
20
56
31
39
16
2
21
23
28
34
26
18
25
5
46
47
6
48
8
13
50
7
27
54

>  <PUBCHEM_MMFF94_PARTIAL_CHARGES>
24
1 -0.43
10 -0.15
11 -0.15
12 -0.15
13 0.63
14 0.63
15 0.28
16 0.28
17 0.28
18 0.28
19 0.15
2 -0.43
20 0.15
21 0.15
22 0.15
3 -0.57
31 0.4
32 0.4
4 -0.57
5 -0.68
6 -0.68
7 0.09
8 0.09
9 -0.15

>  <PUBCHEM_EFFECTIVE_ROTOR_COUNT>
8

>  <PUBCHEM_PHARMACOPHORE_FEATURES>
7
1 3 acceptor
1 4 acceptor
1 5 acceptor
1 5 donor
1 6 acceptor
1 6 donor
6 7 8 9 10 11 12 rings

>  <PUBCHEM_HEAVY_ATOM_COUNT>
18

>  <PUBCHEM_ATOM_DEF_STEREO_COUNT>
0

>  <PUBCHEM_ATOM_UDEF_STEREO_COUNT>
0

>  <PUBCHEM_BOND_DEF_STEREO_COUNT>
0

>  <PUBCHEM_BOND_UDEF_STEREO_COUNT>
0

>  <PUBCHEM_ISOTOPIC_ATOM_COUNT>
0

>  <PUBCHEM_COMPONENT_COUNT>
1

>  <PUBCHEM_CACTVS_TAUTO_COUNT>
1

>  <PUBCHEM_CONFORMER_ID>
000035AB00000001

>  <PUBCHEM_MMFF94_ENERGY>
44.2295

>  <PUBCHEM_FEATURE_SELFOVERLAP>
35.523

>  <PUBCHEM_SHAPE_FINGERPRINT>
10968037 39 18410012152543713039
11089746 13 12540695946557521839
11806522 49 18410009918986535353
12236239 1 18410855447243259972
13533116 47 16660916683113605170
13862211 1 18410006628598832378
14251718 22 18411136939420945249
14251732 16 18410855494493175089
14528608 73 18409733958879929100
14787075 74 18409729560226607264
15196674 1 18338516313804112001
17834072 33 18412824698380719020
19489759 90 14418129604479230181
200 152 18412260623910614371
20645477 70 18199752449496498934
21267235 1 18412550889973548114
221490 88 18263928916185329587
23272321 79 18409451383816681488
23402539 116 18335415751807977061
23402655 69 18339074883518801269
23559900 14 18262797501097503721
34797466 226 17203614826284060588
350125 39 18411983563781164433
3545911 37 18410577275887755602
4325135 7 18410855468718096782
4340502 62 16732706042963078794
4463277 17 18412265021635592889
474 4 17676779746965951636
474229 33 18411136935353240571
5104073 3 18266741281369621474
7062679 117 18341894121495265503

>  <PUBCHEM_SHAPE_MULTIPOLES>
335.22
13.61
1.83
0.69
0
0
-0.08
0
-1.87
0
-0.09
0
0
-0.86

>  <PUBCHEM_SHAPE_SELFOVERLAP>
687.263

>  <PUBCHEM_SHAPE_VOLUME>
192.6

>  <PUBCHEM_COORDINATE_TYPE>
2
5
10

$$$$
13739
 OpenBabel11092011363D

 32 32  0  0  0  0  0  0  0  0999 V2000
    2.6843   -2.2870    0.7769 O   0  0  0  0  0  0  0  0  0  0  0  0
   -2.6184    2.4500    0.1343 O   0  0  0  0  0  0  0  0  0  0  0  0
    3.6183   -0.5333   -0.3854 O   0  0  0  0  0  0  0  0  0  0  0  0
   -3.6715    0.4029    0.1307 O   0  0  0  0  0  0  0  0  0  0  0  0
    4.2390   -2.6835   -1.5201 O   0  0  0  0  0  0  0  0  0  0  0  0
   -1.9413    1.7536    2.7477 O   0  0  0  0  0  0  0  0  0  0  0  0
    1.2904   -0.5293    0.1305 C   0  0  0  0  0  0  0  0  0  0  0  0
   -1.2905    0.5298    0.1314 C   0  0  0  0  0  0  0  0  0  0  0  0
    0.1866   -1.3821    0.1311 C   0  0  0  0  0  0  0  0  0  0  0  0
   -1.1039   -0.8526    0.1315 C   0  0  0  0  0  0  0  0  0  0  0  0
    1.1037    0.8530    0.1304 C   0  0  0  0  0  0  0  0  0  0  0  0
   -0.1867    1.3826    0.1310 C   0  0  0  0  0  0  0  0  0  0  0  0
    2.6356   -1.0816    0.1313 C   0  0  0  0  0  0  0  0  0  0  0  0
   -2.6356    1.0817    0.1316 C   0  0  0  0  0  0  0  0  0  0  0  0
    3.9596   -2.9339    0.8443 C   0  0  0  0  0  0  0  0  0  0  0  0
   -3.2331    3.1029    1.2504 C   0  0  0  0  0  0  0  0  0  0  0  0
    4.2250   -3.6428   -0.4700 C   0  0  0  0  0  0  0  0  0  0  0  0
   -2.2672    3.0988    2.4195 C   0  0  0  0  0  0  0  0  0  0  0  0
    0.3104   -2.4619    0.1314 H   0  0  0  0  0  0  0  0  0  0  0  0
   -1.9332   -1.5543    0.1317 H   0  0  0  0  0  0  0  0  0  0  0  0
    1.9330    1.5547    0.1300 H   0  0  0  0  0  0  0  0  0  0  0  0
   -0.3105    2.4624    0.1308 H   0  0  0  0  0  0  0  0  0  0  0  0
    4.7387   -2.1866    1.0294 H   0  0  0  0  0  0  0  0  0  0  0  0
    3.9400   -3.6589    1.6661 H   0  0  0  0  0  0  0  0  0  0  0  0
   -3.4878    4.1327    0.9778 H   0  0  0  0  0  0  0  0  0  0  0  0
   -4.1430    2.5531    1.5164 H   0  0  0  0  0  0  0  0  0  0  0  0
    3.4574   -4.3921   -0.6833 H   0  0  0  0  0  0  0  0  0  0  0  0
    5.2052   -4.1283   -0.4583 H   0  0  0  0  0  0  0  0  0  0  0  0
   -2.7129    3.5727    3.2983 H   0  0  0  0  0  0  0  0  0  0  0  0
   -1.3368    3.6166    2.1667 H   0  0  0  0  0  0  0  0  0  0  0  0
    3.3623   -2.2633   -1.5451 H   0  0  0  0  0  0  0  0  0  0  0  0
   -1.5596    1.3437    1.9527 H   0  0  0  0  0  0  0  0  0  0  0  0
  1 13  1  0  0  0  0
  1 15  1  0  0  0  0
  2 14  1  0  0  0  0
  2 16  1  0  0  0  0
  3 13  2  0  0  0  0
  4 14  2  0  0  0  0
  5 17  1  0  0  0  0
  5 31  1  0  0  0  0
  6 18  1  0  0  0  0
  6 32  1  0  0  0  0
  7  9  2  0  0  0  0
  7 11  1  0  0  0  0
  7 13  1  0  0  0  0
  8 10  2  0  0  0  0
  8 12  1  0  0  0  0
  8 14  1  0  0  0  0
  9 10  1  0  0  0  0
  9 19  1  0  0  0  0
 10 20  1  0  0  0  0
 11 12  2  0  0  0  0
 11 21  1  0  0  0  0
 12 22  1  0  0  0  0
 15 17  1  0  0  0  0
 15 23  1  0  0  0  0
 15 24  1  0  0  0  0
 16 18  1  0  0  0  0
 16 25  1  0  0  0  0
 16 26  1  0  0  0  0
 17 27  1  0  0  0  0
 17 28  1  0  0  0  0
 18 29  1  0  0  0  0
 18 30  1  0  0  0  0
M  END
>  <PUBCHEM_COMPOUND_CID>
13739

>  <PUBCHEM_CONFORMER_RMSD>
0.8

>  <PUBCHEM_CONFORMER_DIVERSEORDER>
1
57
49
30
42
33
44
14
53
22
19
10
12
45
3
41
11
32
40
15
36
55
29
9
38
4
58
17
37
43
52
24
51
35
20
56
31
39
16
2
21
23
28
34
26
18
25
5
46
47
6
48
8
13
50
7
27
54

>  <PUBCHEM_MMFF94_PARTIAL_CHARGES>
24
1 -0.43
10 -0.15
11 -0.15
12 -0.15
13 0.63
14 0.63
15 0.28
16 0.28
17 0.28
18 0.28
19 0.15
2 -0.43
20 0.15
21 0.15
22 0.15
3 -0.57
31 0.4
32 0.4
4 -0.57
5 -0.68
6 -0.68
7 0.09
8 0.09
9 -0.15

>  <PUBCHEM_EFFECTIVE_ROTOR_COUNT>
8

>  <PUBCHEM_PHARMACOPHORE_FEATURES>
7
1 3 acceptor
1 4 acceptor
1 5 acceptor
1 5 donor
1 6 acceptor
1 6 donor
6 7 8 9 10 11 12 rings

>  <PUBCHEM_HEAVY_ATOM_COUNT>
18

>  <PUBCHEM_ATOM_DEF_STEREO_COUNT>
0

>  <PUBCHEM_ATOM_UDEF_STEREO_COUNT>
0

>  <PUBCHEM_BOND_DEF_STEREO_COUNT>
0

>  <PUBCHEM_BOND_UDEF_STEREO_COUNT>
0

>  <PUBCHEM_ISOTOPIC_ATOM_COUNT>
0

>  <PUBCHEM_COMPONENT_COUNT>
1

>  <PUBCHEM_CACTVS_TAUTO_COUNT>
1

>  <PUBCHEM_CONFORMER_ID>
000035AB00000001

>  <PUBCHEM_MMFF94_ENERGY>
44.2295

>  <PUBCHEM_FEATURE_SELFOVERLAP>
35.523

>  <PUBCHEM_SHAPE_FINGERPRINT>
10968037 39 18410012152543713039
11089746 13 12540695946557521839
11806522 49 18410009918986535353
12236239 1 18410855447243259972
13533116 47 16660916683113605170
13862211 1 18410006628598832378
14251718 22 18411136939420945249
14251732 16 18410855494493175089
14528608 73 18409733958879929100
14787075 74 18409729560226607264
15196674 1 18338516313804112001
17834072 33 18412824698380719020
19489759 90 14418129604479230181
200 152 18412260623910614371
20645477 70 18199752449496498934
21267235 1 18412550889973548114
221490 88 18263928916185329587
23272321 79 18409451383816681488
23402539 116 18335415751807977061
23402655 69 18339074883518801269
23559900 14 18262797501097503721
34797466 226 17203614826284060588
350125 39 18411983563781164433
3545911 37 18410577275887755602
4325135 7 18410855468718096782
4340502 62 16732706042963078794
4463277 17 18412265021635592889
474 4 17676779746965951636
474229 33 18411136935353240571
5104073 3 18266741281369621474
7062679 117 18341894121495265503

>  <PUBCHEM_SHAPE_MULTIPOLES>
335.22
13.61
1.83
0.69
0
0
-0.08
0
-1.87
0
-0.09
0
0
-0.86

>  <PUBCHEM_SHAPE_SELFOVERLAP>
687.263

>  <PUBCHEM_SHAPE_VOLUME>
192.6

>  <PUBCHEM_COORDINATE_TYPE>
2
5
10

$$$$
13739
 OpenBabel11092011363D

 32 32  0  0  0  0  0  0  0  0999 V2000
    3.5213   -0.2484    0.7586 O   0  0  0  0  0  0  0  0  0  0  0  0
   -3.5178    0.2583   -0.5136 O   0  0  0  0  0  0  0  0  0  0  0  0
    2.9466   -2.1692   -0.3723 O   0  0  0  0  0  0  0  0  0  0  0  0
   -2.9494    2.1624    0.6485 O   0  0  0  0  0  0  0  0  0  0  0  0
    7.0332   -0.9616    1.4124 O   0  0  0  0  0  0  0  0  0  0  0  0
   -2.9192   -0.6519   -3.0950 O   0  0  0  0  0  0  0  0  0  0  0  0
    1.2904   -0.5293    0.1305 C   0  0  0  0  0  0  0  0  0  0  0  0
   -1.2905    0.5298    0.1314 C   0  0  0  0  0  0  0  0  0  0  0  0
    0.1866   -1.3821    0.1311 C   0  0  0  0  0  0  0  0  0  0  0  0
   -1.1039   -0.8526    0.1315 C   0  0  0  0  0  0  0  0  0  0  0  0
    1.1037    0.8530    0.1304 C   0  0  0  0  0  0  0  0  0  0  0  0
   -0.1867    1.3826    0.1310 C   0  0  0  0  0  0  0  0  0  0  0  0
    2.6356   -1.0816    0.1313 C   0  0  0  0  0  0  0  0  0  0  0  0
   -2.6356    1.0817    0.1316 C   0  0  0  0  0  0  0  0  0  0  0  0
    4.6413   -0.8628    1.4047 C   0  0  0  0  0  0  0  0  0  0  0  0
   -4.1808    0.7941   -1.6638 C   0  0  0  0  0  0  0  0  0  0  0  0
    5.9208   -0.3389    0.7814 C   0  0  0  0  0  0  0  0  0  0  0  0
   -3.2475    0.7114   -2.8562 C   0  0  0  0  0  0  0  0  0  0  0  0
    0.3104   -2.4619    0.1314 H   0  0  0  0  0  0  0  0  0  0  0  0
   -1.9332   -1.5543    0.1317 H   0  0  0  0  0  0  0  0  0  0  0  0
    1.9330    1.5547    0.1300 H   0  0  0  0  0  0  0  0  0  0  0  0
   -0.3105    2.4624    0.1308 H   0  0  0  0  0  0  0  0  0  0  0  0
    4.6219   -0.6245    2.4737 H   0  0  0  0  0  0  0  0  0  0  0  0
    4.5717   -1.9478    1.2666 H   0  0  0  0  0  0  0  0  0  0  0  0
   -5.0932    0.2211   -1.8610 H   0  0  0  0  0  0  0  0  0  0  0  0
   -4.4358    1.8406   -1.4616 H   0  0  0  0  0  0  0  0  0  0  0  0
    6.0081    0.7452    0.8964 H   0  0  0  0  0  0  0  0  0  0  0  0
    5.9660   -0.5905   -0.2822 H   0  0  0  0  0  0  0  0  0  0  0  0
   -2.3227    1.2641   -2.6697 H   0  0  0  0  0  0  0  0  0  0  0  0
   -3.7234    1.1045   -3.7600 H   0  0  0  0  0  0  0  0  0  0  0  0
    7.0064   -0.7242    2.3550 H   0  0  0  0  0  0  0  0  0  0  0  0
   -3.7523   -1.1306   -3.2451 H   0  0  0  0  0  0  0  0  0  0  0  0
  1 13  1  0  0  0  0
  1 15  1  0  0  0  0
  2 14  1  0  0  0  0
  2 16  1  0  0  0  0
  3 13  2  0  0  0  0
  4 14  2  0  0  0  0
  5 17  1  0  0  0  0
  5 31  1  0  0  0  0
  6 18  1  0  0  0  0
  6 32  1  0  0  0  0
  7  9  2  0  0  0  0
  7 11  1  0  0  0  0
  7 13  1  0  0  0  0
  8 10  2  0  0  0  0
  8 12  1  0  0  0  0
  8 14  1  0  0  0  0
  9 10  1  0  0  0  0
  9 19  1  0  0  0  0
 10 20  1  0  0  0  0
 11 12  2  0  0  0  0
 11 21  1  0  0  0  0
 12 22  1  0  0  0  0
 15 17  1  0  0  0  0
 15 23  1  0  0  0  0
 15 24  1  0  0  0  0
 16 18  1  0  0  0  0
 16 25  1  0  0  0  0
 16 26  1  0  0  0  0
 17 27  1  0  0  0  0
 17 28  1  0  0  0  0
 18 29  1  0  0  0  0
 18 30  1  0  0  0  0
M  END
>  <PUBCHEM_COMPOUND_CID>
13739

>  <PUBCHEM_CONFORMER_RMSD>
0.8

>  <PUBCHEM_CONFORMER_DIVERSEORDER>
1
57
49
30
42
33
44
14
53
22
19
10
12
45
3
41
11
32
40
15
36
55
29
9
38
4
58
17
37
43
52
24
51
35
20
56
31
39
16
2
21
23
28
34
26
18
25
5
46
47
6
48
8
13
50
7
27
54

>  <PUBCHEM_MMFF94_PARTIAL_CHARGES>
24
1 -0.43
10 -0.15
11 -0.15
12 -0.15
13 0.63
14 0.63
15 0.28
16 0.28
17 0.28
18 0.28
19 0.15
2 -0.43
20 0.15
21 0.15
22 0.15
3 -0.57
31 0.4
32 0.4
4 -0.57
5 -0.68
6 -0.68
7 0.09
8 0.09
9 -0.15

>  <PUBCHEM_EFFECTIVE_ROTOR_COUNT>
8

>  <PUBCHEM_PHARMACOPHORE_FEATURES>
7
1 3 acceptor
1 4 acceptor
1 5 acceptor
1 5 donor
1 6 acceptor
1 6 donor
6 7 8 9 10 11 12 rings

>  <PUBCHEM_HEAVY_ATOM_COUNT>
18

>  <PUBCHEM_ATOM_DEF_STEREO_COUNT>
0

>  <PUBCHEM_ATOM_UDEF_STEREO_COUNT>
0

>  <PUBCHEM_BOND_DEF_STEREO_COUNT>
0

>  <PUBCHEM_BOND_UDEF_STEREO_COUNT>
0

>  <PUBCHEM_ISOTOPIC_ATOM_COUNT>
0

>  <PUBCHEM_COMPONENT_COUNT>
1

>  <PUBCHEM_CACTVS_TAUTO_COUNT>
1

>  <PUBCHEM_CONFORMER_ID>
000035AB00000001

>  <PUBCHEM_MMFF94_ENERGY>
44.2295

>  <PUBCHEM_FEATURE_SELFOVERLAP>
35.523

>  <PUBCHEM_SHAPE_FINGERPRINT>
10968037 39 18410012152543713039
11089746 13 12540695946557521839
11806522 49 18410009918986535353
12236239 1 18410855447243259972
13533116 47 16660916683113605170
13862211 1 18410006628598832378
14251718 22 18411136939420945249
14251732 16 18410855494493175089
14528608 73 18409733958879929100
14787075 74 18409729560226607264
15196674 1 18338516313804112001
17834072 33 18412824698380719020
19489759 90 14418129604479230181
200 152 18412260623910614371
20645477 70 18199752449496498934
21267235 1 18412550889973548114
221490 88 18263928916185329587
23272321 79 18409451383816681488
23402539 116 18335415751807977061
23402655 69 18339074883518801269
23559900 14 18262797501097503721
34797466 226 17203614826284060588
350125 39 18411983563781164433
3545911 37 18410577275887755602
4325135 7 18410855468718096782
4340502 62 16732706042963078794
4463277 17 18412265021635592889
474 4 17676779746965951636
474229 33 18411136935353240571
5104073 3 18266741281369621474
7062679 117 18341894121495265503

>  <PUBCHEM_SHAPE_MULTIPOLES>
335.22
13.61
1.83
0.69
0
0
-0.08
0
-1.87
0
-0.09
0
0
-0.86

>  <PUBCHEM_SHAPE_SELFOVERLAP>
687.263

>  <PUBCHEM_SHAPE_VOLUME>
192.6

>  <PUBCHEM_COORDINATE_TYPE>
2
5
10

$$$$
13739
 OpenBabel11092011363D

 32 32  0  0  0  0  0  0  0  0999 V2000
    2.6843   -2.2870    0.7769 O   0  0  0  0  0  0  0  0  0  0  0  0
   -3.5178    0.2583   -0.5136 O   0  0  0  0  0  0  0  0  0  0  0  0
    3.6183   -0.5333   -0.3854 O   0  0  0  0  0  0  0  0  0  0  0  0
   -2.9494    2.1624    0.6485 O   0  0  0  0  0  0  0  0  0  0  0  0
    2.2628   -2.4345   -1.9891 O   0  0  0  0  0  0  0  0  0  0  0  0
   -5.2277    2.4686   -2.8505 O   0  0  0  0  0  0  0  0  0  0  0  0
    1.2904   -0.5293    0.1305 C   0  0  0  0  0  0  0  0  0  0  0  0
   -1.2905    0.5298    0.1314 C   0  0  0  0  0  0  0  0  0  0  0  0
    0.1866   -1.3821    0.1311 C   0  0  0  0  0  0  0  0  0  0  0  0
   -1.1039   -0.8526    0.1315 C   0  0  0  0  0  0  0  0  0  0  0  0
    1.1037    0.8530    0.1304 C   0  0  0  0  0  0  0  0  0  0  0  0
   -0.1867    1.3826    0.1310 C   0  0  0  0  0  0  0  0  0  0  0  0
    2.6356   -1.0816    0.1313 C   0  0  0  0  0  0  0  0  0  0  0  0
   -2.6356    1.0817    0.1316 C   0  0  0  0  0  0  0  0  0  0  0  0
    3.1353   -3.4116    0.0146 C   0  0  0  0  0  0  0  0  0  0  0  0
   -4.6330    0.8827   -1.1586 C   0  0  0  0  0  0  0  0  0  0  0  0
    2.2173   -3.6017   -1.1775 C   0  0  0  0  0  0  0  0  0  0  0  0
   -4.1202    1.8360   -2.2208 C   0  0  0  0  0  0  0  0  0  0  0  0
    0.3104   -2.4619    0.1314 H   0  0  0  0  0  0  0  0  0  0  0  0
   -1.9332   -1.5543    0.1317 H   0  0  0  0  0  0  0  0  0  0  0  0
    1.9330    1.5547    0.1300 H   0  0  0  0  0  0  0  0  0  0  0  0
   -0.3105    2.4624    0.1308 H   0  0  0  0  0  0  0  0  0  0  0  0
    4.1602   -3.2329   -0.3282 H   0  0  0  0  0  0  0  0  0  0  0  0
    3.1096   -4.3004    0.6555 H   0  0  0  0  0  0  0  0  0  0  0  0
   -5.2674    0.1165   -1.6169 H   0  0  0  0  0  0  0  0  0  0  0  0
   -5.2046    1.4364   -0.4051 H   0  0  0  0  0  0  0  0  0  0  0  0
    1.1842   -3.7765   -0.8639 H   0  0  0  0  0  0  0  0  0  0  0  0
    2.5507   -4.4414   -1.7943 H   0  0  0  0  0  0  0  0  0  0  0  0
   -3.5456    1.3022   -2.9826 H   0  0  0  0  0  0  0  0  0  0  0  0
   -3.4929    2.6180   -1.7819 H   0  0  0  0  0  0  0  0  0  0  0  0
    1.9489   -1.6893   -1.4489 H   0  0  0  0  0  0  0  0  0  0  0  0
   -5.7345    2.9263   -2.1581 H   0  0  0  0  0  0  0  0  0  0  0  0
  1 13  1  0  0  0  0
  1 15  1  0  0  0  0
  2 14  1  0  0  0  0
  2 16  1  0  0  0  0
  3 13  2  0  0  0  0
  4 14  2  0  0  0  0
  5 17  1  0  0  0  0
  5 31  1  0  0  0  0
  6 18  1  0  0  0  0
  6 32  1  0  0  0  0
  7  9  2  0  0  0  0
  7 11  1  0  0  0  0
  7 13  1  0  0  0  0
  8 10  2  0  0  0  0
  8 12  1  0  0  0  0
  8 14  1  0  0  0  0
  9 10  1  0  0  0  0
  9 19  1  0  0  0  0
 10 20  1  0  0  0  0
 11 12  2  0  0  0  0
 11 21  1  0  0  0  0
 12 22  1  0  0  0  0
 15 17  1  0  0  0  0
 15 23  1  0  0  0  0
 15 24  1  0  0  0  0
 16 18  1  0  0  0  0
 16 25  1  0  0  0  0
 16 26  1  0  0  0  0
 17 27  1  0  0  0  0
 17 28  1  0  0  0  0
 18 29  1  0  0  0  0
 18 30  1  0  0  0  0
M  END
>  <PUBCHEM_COMPOUND_CID>
13739

>  <PUBCHEM_CONFORMER_RMSD>
0.8

>  <PUBCHEM_CONFORMER_DIVERSEORDER>
1
57
49
30
42
33
44
14
53
22
19
10
12
45
3
41
11
32
40
15
36
55
29
9
38
4
58
17
37
43
52
24
51
35
20
56
31
39
16
2
21
23
28
34
26
18
25
5
46
47
6
48
8
13
50
7
27
54

>  <PUBCHEM_MMFF94_PARTIAL_CHARGES>
24
1 -0.43
10 -0.15
11 -0.15
12 -0.15
13 0.63
14 0.63
15 0.28
16 0.28
17 0.28
18 0.28
19 0.15
2 -0.43
20 0.15
21 0.15
22 0.15
3 -0.57
31 0.4
32 0.4
4 -0.57
5 -0.68
6 -0.68
7 0.09
8 0.09
9 -0.15

>  <PUBCHEM_EFFECTIVE_ROTOR_COUNT>
8

>  <PUBCHEM_PHARMACOPHORE_FEATURES>
7
1 3 acceptor
1 4 acceptor
1 5 acceptor
1 5 donor
1 6 acceptor
1 6 donor
6 7 8 9 10 11 12 rings

>  <PUBCHEM_HEAVY_ATOM_COUNT>
18

>  <PUBCHEM_ATOM_DEF_STEREO_COUNT>
0

>  <PUBCHEM_ATOM_UDEF_STEREO_COUNT>
0

>  <PUBCHEM_BOND_DEF_STEREO_COUNT>
0

>  <PUBCHEM_BOND_UDEF_STEREO_COUNT>
0

>  <PUBCHEM_ISOTOPIC_ATOM_COUNT>
0

>  <PUBCHEM_COMPONENT_COUNT>
1

>  <PUBCHEM_CACTVS_TAUTO_COUNT>
1

>  <PUBCHEM_CONFORMER_ID>
000035AB00000001

>  <PUBCHEM_MMFF94_ENERGY>
44.2295

>  <PUBCHEM_FEATURE_SELFOVERLAP>
35.523

>  <PUBCHEM_SHAPE_FINGERPRINT>
10968037 39 18410012152543713039
11089746 13 12540695946557521839
11806522 49 18410009918986535353
12236239 1 18410855447243259972
13533116 47 16660916683113605170
13862211 1 18410006628598832378
14251718 22 18411136939420945249
14251732 16 18410855494493175089
14528608 73 18409733958879929100
14787075 74 18409729560226607264
15196674 1 18338516313804112001
17834072 33 18412824698380719020
19489759 90 14418129604479230181
200 152 18412260623910614371
20645477 70 18199752449496498934
21267235 1 18412550889973548114
221490 88 18263928916185329587
23272321 79 18409451383816681488
23402539 116 18335415751807977061
23402655 69 18339074883518801269
23559900 14 18262797501097503721
34797466 226 17203614826284060588
350125 39 18411983563781164433
3545911 37 18410577275887755602
4325135 7 18410855468718096782
4340502 62 16732706042963078794
4463277 17 18412265021635592889
474 4 17676779746965951636
474229 33 18411136935353240571
5104073 3 18266741281369621474
7062679 117 18341894121495265503

>  <PUBCHEM_SHAPE_MULTIPOLES>
335.22
13.61
1.83
0.69
0
0
-0.08
0
-1.87
0
-0.09
0
0
-0.86

>  <PUBCHEM_SHAPE_SELFOVERLAP>
687.263

>  <PUBCHEM_SHAPE_VOLUME>
192.6

>  <PUBCHEM_COORDINATE_TYPE>
2
5
10

$$$$
13739
 OpenBabel11092011363D

 32 32  0  0  0  0  0  0  0  0999 V2000
    3.5844   -0.0957    0.1288 O   0  0  0  0  0  0  0  0  0  0  0  0
   -3.5178    0.2583   -0.5136 O   0  0  0  0  0  0  0  0  0  0  0  0
    2.8958   -2.2922    0.1329 O   0  0  0  0  0  0  0  0  0  0  0  0
   -2.9494    2.1624    0.6485 O   0  0  0  0  0  0  0  0  0  0  0  0
    4.9829   -2.3863   -0.6762 O   0  0  0  0  0  0  0  0  0  0  0  0
   -5.9825   -0.2947   -1.7260 O   0  0  0  0  0  0  0  0  0  0  0  0
    1.2904   -0.5293    0.1305 C   0  0  0  0  0  0  0  0  0  0  0  0
   -1.2905    0.5298    0.1314 C   0  0  0  0  0  0  0  0  0  0  0  0
    0.1866   -1.3821    0.1311 C   0  0  0  0  0  0  0  0  0  0  0  0
   -1.1039   -0.8526    0.1315 C   0  0  0  0  0  0  0  0  0  0  0  0
    1.1037    0.8530    0.1304 C   0  0  0  0  0  0  0  0  0  0  0  0
   -0.1867    1.3826    0.1310 C   0  0  0  0  0  0  0  0  0  0  0  0
    2.6356   -1.0816    0.1313 C   0  0  0  0  0  0  0  0  0  0  0  0
   -2.6356    1.0817    0.1316 C   0  0  0  0  0  0  0  0  0  0  0  0
    4.4833   -0.0655   -0.9850 C   0  0  0  0  0  0  0  0  0  0  0  0
   -4.6304   -0.2225    0.2483 C   0  0  0  0  0  0  0  0  0  0  0  0
    5.5746   -1.0961   -0.7683 C   0  0  0  0  0  0  0  0  0  0  0  0
   -5.9167    0.2391   -0.4092 C   0  0  0  0  0  0  0  0  0  0  0  0
    0.3104   -2.4619    0.1314 H   0  0  0  0  0  0  0  0  0  0  0  0
   -1.9332   -1.5543    0.1317 H   0  0  0  0  0  0  0  0  0  0  0  0
    1.9330    1.5547    0.1300 H   0  0  0  0  0  0  0  0  0  0  0  0
   -0.3105    2.4624    0.1308 H   0  0  0  0  0  0  0  0  0  0  0  0
    3.9329   -0.2922   -1.9045 H   0  0  0  0  0  0  0  0  0  0  0  0
    4.9203    0.9373   -1.0534 H   0  0  0  0  0  0  0  0  0  0  0  0
   -4.6015   -1.3166    0.2889 H   0  0  0  0  0  0  0  0  0  0  0  0
   -4.5611    0.1889    1.2617 H   0  0  0  0  0  0  0  0  0  0  0  0
    6.1376   -0.8971    0.1480 H   0  0  0  0  0  0  0  0  0  0  0  0
    6.2658   -1.1138   -1.6160 H   0  0  0  0  0  0  0  0  0  0  0  0
   -5.9547    1.3299   -0.4741 H   0  0  0  0  0  0  0  0  0  0  0  0
   -6.7931   -0.1175    0.1409 H   0  0  0  0  0  0  0  0  0  0  0  0
    4.3818   -2.3793    0.0883 H   0  0  0  0  0  0  0  0  0  0  0  0
   -5.9337   -1.2630   -1.6510 H   0  0  0  0  0  0  0  0  0  0  0  0
  1 13  1  0  0  0  0
  1 15  1  0  0  0  0
  2 14  1  0  0  0  0
  2 16  1  0  0  0  0
  3 13  2  0  0  0  0
  4 14  2  0  0  0  0
  5 17  1  0  0  0  0
  5 31  1  0  0  0  0
  6 18  1  0  0  0  0
  6 32  1  0  0  0  0
  7  9  2  0  0  0  0
  7 11  1  0  0  0  0
  7 13  1  0  0  0  0
  8 10  2  0  0  0  0
  8 12  1  0  0  0  0
  8 14  1  0  0  0  0
  9 10  1  0  0  0  0
  9 19  1  0  0  0  0
 10 20  1  0  0  0  0
 11 12  2  0  0  0  0
 11 21  1  0  0  0  0
 12 22  1  0  0  0  0
 15 17  1  0  0  0  0
 15 23  1  0  0  0  0
 15 24  1  0  0  0  0
 16 18  1  0  0  0  0
 16 25  1  0  0  0  0
 16 26  1  0  0  0  0
 17 27  1  0  0  0  0
 17 28  1  0  0  0  0
 18 29  1  0  0  0  0
 18 30  1  0  0  0  0
M  END
>  <PUBCHEM_COMPOUND_CID>
13739

>  <PUBCHEM_CONFORMER_RMSD>
0.8

>  <PUBCHEM_CONFORMER_DIVERSEORDER>
1
57
49
30
42
33
44
14
53
22
19
10
12
45
3
41
11
32
40
15
36
55
29
9
38
4
58
17
37
43
52
24
51
35
20
56
31
39
16
2
21
23
28
34
26
18
25
5
46
47
6
48
8
13
50
7
27
54

>  <PUBCHEM_MMFF94_PARTIAL_CHARGES>
24
1 -0.43
10 -0.15
11 -0.15
12 -0.15
13 0.63
14 0.63
15 0.28
16 0.28
17 0.28
18 0.28
19 0.15
2 -0.43
20 0.15
21 0.15
22 0.15
3 -0.57
31 0.4
32 0.4
4 -0.57
5 -0.68
6 -0.68
7 0.09
8 0.09
9 -0.15

>  <PUBCHEM_EFFECTIVE_ROTOR_COUNT>
8

>  <PUBCHEM_PHARMACOPHORE_FEATURES>
7
1 3 acceptor
1 4 acceptor
1 5 acceptor
1 5 donor
1 6 acceptor
1 6 donor
6 7 8 9 10 11 12 rings

>  <PUBCHEM_HEAVY_ATOM_COUNT>
18

>  <PUBCHEM_ATOM_DEF_STEREO_COUNT>
0

>  <PUBCHEM_ATOM_UDEF_STEREO_COUNT>
0

>  <PUBCHEM_BOND_DEF_STEREO_COUNT>
0

>  <PUBCHEM_BOND_UDEF_STEREO_COUNT>
0

>  <PUBCHEM_ISOTOPIC_ATOM_COUNT>
0

>  <PUBCHEM_COMPONENT_COUNT>
1

>  <PUBCHEM_CACTVS_TAUTO_COUNT>
1

>  <PUBCHEM_CONFORMER_ID>
000035AB00000001

>  <PUBCHEM_MMFF94_ENERGY>
44.2295

>  <PUBCHEM_FEATURE_SELFOVERLAP>
35.523

>  <PUBCHEM_SHAPE_FINGERPRINT>
10968037 39 18410012152543713039
11089746 13 12540695946557521839
11806522 49 18410009918986535353
12236239 1 18410855447243259972
13533116 47 16660916683113605170
13862211 1 18410006628598832378
14251718 22 18411136939420945249
14251732 16 18410855494493175089
14528608 73 18409733958879929100
14787075 74 18409729560226607264
15196674 1 18338516313804112001
17834072 33 18412824698380719020
19489759 90 14418129604479230181
200 152 18412260623910614371
20645477 70 18199752449496498934
21267235 1 18412550889973548114
221490 88 18263928916185329587
23272321 79 18409451383816681488
23402539 116 18335415751807977061
23402655 69 18339074883518801269
23559900 14 18262797501097503721
34797466 226 17203614826284060588
350125 39 18411983563781164433
3545911 37 18410577275887755602
4325135 7 18410855468718096782
4340502 62 16732706042963078794
4463277 17 18412265021635592889
474 4 17676779746965951636
474229 33 18411136935353240571
5104073 3 18266741281369621474
7062679 117 18341894121495265503

>  <PUBCHEM_SHAPE_MULTIPOLES>
335.22
13.61
1.83
0.69
0
0
-0.08
0
-1.87
0
-0.09
0
0
-0.86

>  <PUBCHEM_SHAPE_SELFOVERLAP>
687.263

>  <PUBCHEM_SHAPE_VOLUME>
192.6

>  <PUBCHEM_COORDINATE_TYPE>
2
5
10

$$$$
13739
 OpenBabel11092011363D

 32 32  0  0  0  0  0  0  0  0999 V2000
    2.6843   -2.2870    0.7769 O   0  0  0  0  0  0  0  0  0  0  0  0
   -3.5178    0.2583   -0.5136 O   0  0  0  0  0  0  0  0  0  0  0  0
    3.6183   -0.5333   -0.3854 O   0  0  0  0  0  0  0  0  0  0  0  0
   -2.9494    2.1624    0.6485 O   0  0  0  0  0  0  0  0  0  0  0  0
    5.8086   -2.6758    2.6092 O   0  0  0  0  0  0  0  0  0  0  0  0
   -7.1155    0.7649   -0.7782 O   0  0  0  0  0  0  0  0  0  0  0  0
    1.2904   -0.5293    0.1305 C   0  0  0  0  0  0  0  0  0  0  0  0
   -1.2905    0.5298    0.1314 C   0  0  0  0  0  0  0  0  0  0  0  0
    0.1866   -1.3821    0.1311 C   0  0  0  0  0  0  0  0  0  0  0  0
   -1.1039   -0.8526    0.1315 C   0  0  0  0  0  0  0  0  0  0  0  0
    1.1037    0.8530    0.1304 C   0  0  0  0  0  0  0  0  0  0  0  0
   -0.1867    1.3826    0.1310 C   0  0  0  0  0  0  0  0  0  0  0  0
    2.6356   -1.0816    0.1313 C   0  0  0  0  0  0  0  0  0  0  0  0
   -2.6356    1.0817    0.1316 C   0  0  0  0  0  0  0  0  0  0  0  0
    3.5346   -2.3720    1.9255 C   0  0  0  0  0  0  0  0  0  0  0  0
   -4.8783    0.2920   -0.0693 C   0  0  0  0  0  0  0  0  0  0  0  0
    4.9661   -2.5750    1.4677 C   0  0  0  0  0  0  0  0  0  0  0  0
   -5.7656    0.7156   -1.2239 C   0  0  0  0  0  0  0  0  0  0  0  0
    0.3104   -2.4619    0.1314 H   0  0  0  0  0  0  0  0  0  0  0  0
   -1.9332   -1.5543    0.1317 H   0  0  0  0  0  0  0  0  0  0  0  0
    1.9330    1.5547    0.1300 H   0  0  0  0  0  0  0  0  0  0  0  0
   -0.3105    2.4624    0.1308 H   0  0  0  0  0  0  0  0  0  0  0  0
    3.4561   -1.4470    2.5070 H   0  0  0  0  0  0  0  0  0  0  0  0
    3.2106   -3.2217    2.5373 H   0  0  0  0  0  0  0  0  0  0  0  0
   -5.1728   -0.7017    0.2852 H   0  0  0  0  0  0  0  0  0  0  0  0
   -4.9588    1.0171    0.7485 H   0  0  0  0  0  0  0  0  0  0  0  0
    5.3093   -1.7440    0.8449 H   0  0  0  0  0  0  0  0  0  0  0  0
    5.0653   -3.5081    0.9053 H   0  0  0  0  0  0  0  0  0  0  0  0
   -5.6987    0.0043   -2.0516 H   0  0  0  0  0  0  0  0  0  0  0  0
   -5.4958    1.7125   -1.5860 H   0  0  0  0  0  0  0  0  0  0  0  0
    5.7369   -1.8401    3.1013 H   0  0  0  0  0  0  0  0  0  0  0  0
   -7.1544    1.3904   -0.0346 H   0  0  0  0  0  0  0  0  0  0  0  0
  1 13  1  0  0  0  0
  1 15  1  0  0  0  0
  2 14  1  0  0  0  0
  2 16  1  0  0  0  0
  3 13  2  0  0  0  0
  4 14  2  0  0  0  0
  5 17  1  0  0  0  0
  5 31  1  0  0  0  0
  6 18  1  0  0  0  0
  6 32  1  0  0  0  0
  7  9  2  0  0  0  0
  7 11  1  0  0  0  0
  7 13  1  0  0  0  0
  8 10  2  0  0  0  0
  8 12  1  0  0  0  0
  8 14  1  0  0  0  0
  9 10  1  0  0  0  0
  9 19  1  0  0  0  0
 10 20  1  0  0  0  0
 11 12  2  0  0  0  0
 11 21  1  0  0  0  0
 12 22  1  0  0  0  0
 15 17  1  0  0  0  0
 15 23  1  0  0  0  0
 15 24  1  0  0  0  0
 16 18  1  0  0  0  0
 16 25  1  0  0  0  0
 16 26  1  0  0  0  0
 17 27  1  0  0  0  0
 17 28  1  0  0  0  0
 18 29  1  0  0  0  0
 18 30  1  0  0  0  0
M  END
>  <PUBCHEM_COMPOUND_CID>
13739

>  <PUBCHEM_CONFORMER_RMSD>
0.8

>  <PUBCHEM_CONFORMER_DIVERSEORDER>
1
57
49
30
42
33
44
14
53
22
19
10
12
45
3
41
11
32
40
15
36
55
29
9
38
4
58
17
37
43
52
24
51
35
20
56
31
39
16
2
21
23
28
34
26
18
25
5
46
47
6
48
8
13
50
7
27
54

>  <PUBCHEM_MMFF94_PARTIAL_CHARGES>
24
1 -0.43
10 -0.15
11 -0.15
12 -0.15
13 0.63
14 0.63
15 0.28
16 0.28
17 0.28
18 0.28
19 0.15
2 -0.43
20 0.15
21 0.15
22 0.15
3 -0.57
31 0.4
32 0.4
4 -0.57
5 -0.68
6 -0.68
7 0.09
8 0.09
9 -0.15

>  <PUBCHEM_EFFECTIVE_ROTOR_COUNT>
8

>  <PUBCHEM_PHARMACOPHORE_FEATURES>
7
1 3 acceptor
1 4 acceptor
1 5 acceptor
1 5 donor
1 6 acceptor
1 6 donor
6 7 8 9 10 11 12 rings

>  <PUBCHEM_HEAVY_ATOM_COUNT>
18

>  <PUBCHEM_ATOM_DEF_STEREO_COUNT>
0

>  <PUBCHEM_ATOM_UDEF_STEREO_COUNT>
0

>  <PUBCHEM_BOND_DEF_STEREO_COUNT>
0

>  <PUBCHEM_BOND_UDEF_STEREO_COUNT>
0

>  <PUBCHEM_ISOTOPIC_ATOM_COUNT>
0

>  <PUBCHEM_COMPONENT_COUNT>
1

>  <PUBCHEM_CACTVS_TAUTO_COUNT>
1

>  <PUBCHEM_CONFORMER_ID>
000035AB00000001

>  <PUBCHEM_MMFF94_ENERGY>
44.2295

>  <PUBCHEM_FEATURE_SELFOVERLAP>
35.523

>  <PUBCHEM_SHAPE_FINGERPRINT>
10968037 39 18410012152543713039
11089746 13 12540695946557521839
11806522 49 18410009918986535353
12236239 1 18410855447243259972
13533116 47 16660916683113605170
13862211 1 18410006628598832378
14251718 22 18411136939420945249
14251732 16 18410855494493175089
14528608 73 18409733958879929100
14787075 74 18409729560226607264
15196674 1 18338516313804112001
17834072 33 18412824698380719020
19489759 90 14418129604479230181
200 152 18412260623910614371
20645477 70 18199752449496498934
21267235 1 18412550889973548114
221490 88 18263928916185329587
23272321 79 18409451383816681488
23402539 116 18335415751807977061
23402655 69 18339074883518801269
23559900 14 18262797501097503721
34797466 226 17203614826284060588
350125 39 18411983563781164433
3545911 37 18410577275887755602
4325135 7 18410855468718096782
4340502 62 16732706042963078794
4463277 17 18412265021635592889
474 4 17676779746965951636
474229 33 18411136935353240571
5104073 3 18266741281369621474
7062679 117 18341894121495265503

>  <PUBCHEM_SHAPE_MULTIPOLES>
335.22
13.61
1.83
0.69
0
0
-0.08
0
-1.87
0
-0.09
0
0
-0.86

>  <PUBCHEM_SHAPE_SELFOVERLAP>
687.263

>  <PUBCHEM_SHAPE_VOLUME>
192.6

>  <PUBCHEM_COORDINATE_TYPE>
2
5
10

$$$$
13739
 OpenBabel11092011363D

 32 32  0  0  0  0  0  0  0  0999 V2000
    2.6843   -2.2870    0.7769 O   0  0  0  0  0  0  0  0  0  0  0  0
   -3.5178    0.2583   -0.5136 O   0  0  0  0  0  0  0  0  0  0  0  0
    3.6183   -0.5333   -0.3854 O   0  0  0  0  0  0  0  0  0  0  0  0
   -2.9494    2.1624    0.6485 O   0  0  0  0  0  0  0  0  0  0  0  0
    3.1058   -0.0672    2.4102 O   0  0  0  0  0  0  0  0  0  0  0  0
   -3.3251   -0.1389    2.2533 O   0  0  0  0  0  0  0  0  0  0  0  0
    1.2904   -0.5293    0.1305 C   0  0  0  0  0  0  0  0  0  0  0  0
   -1.2905    0.5298    0.1314 C   0  0  0  0  0  0  0  0  0  0  0  0
    0.1866   -1.3821    0.1311 C   0  0  0  0  0  0  0  0  0  0  0  0
   -1.1039   -0.8526    0.1315 C   0  0  0  0  0  0  0  0  0  0  0  0
    1.1037    0.8530    0.1304 C   0  0  0  0  0  0  0  0  0  0  0  0
   -0.1867    1.3826    0.1310 C   0  0  0  0  0  0  0  0  0  0  0  0
    2.6356   -1.0816    0.1313 C   0  0  0  0  0  0  0  0  0  0  0  0
   -2.6356    1.0817    0.1316 C   0  0  0  0  0  0  0  0  0  0  0  0
    3.5346   -2.3720    1.9255 C   0  0  0  0  0  0  0  0  0  0  0  0
   -4.6304   -0.2225    0.2483 C   0  0  0  0  0  0  0  0  0  0  0  0
    3.0614   -1.3756    2.9663 C   0  0  0  0  0  0  0  0  0  0  0  0
   -4.1130   -1.0016    1.4420 C   0  0  0  0  0  0  0  0  0  0  0  0
    0.3104   -2.4619    0.1314 H   0  0  0  0  0  0  0  0  0  0  0  0
   -1.9332   -1.5543    0.1317 H   0  0  0  0  0  0  0  0  0  0  0  0
    1.9330    1.5547    0.1300 H   0  0  0  0  0  0  0  0  0  0  0  0
   -0.3105    2.4624    0.1308 H   0  0  0  0  0  0  0  0  0  0  0  0
    3.4945   -3.3871    2.3350 H   0  0  0  0  0  0  0  0  0  0  0  0
    4.5602   -2.1376    1.6184 H   0  0  0  0  0  0  0  0  0  0  0  0
   -5.2361    0.6249    0.5872 H   0  0  0  0  0  0  0  0  0  0  0  0
   -5.2327   -0.8772   -0.3918 H   0  0  0  0  0  0  0  0  0  0  0  0
    3.6890   -1.4027    3.8616 H   0  0  0  0  0  0  0  0  0  0  0  0
    2.0239   -1.5743    3.2507 H   0  0  0  0  0  0  0  0  0  0  0  0
   -3.4910   -1.8421    1.1223 H   0  0  0  0  0  0  0  0  0  0  0  0
   -4.9366   -1.3790    2.0561 H   0  0  0  0  0  0  0  0  0  0  0  0
    4.0304    0.1197    2.1736 H   0  0  0  0  0  0  0  0  0  0  0  0
   -3.8885    0.6086    2.5171 H   0  0  0  0  0  0  0  0  0  0  0  0
  1 13  1  0  0  0  0
  1 15  1  0  0  0  0
  2 14  1  0  0  0  0
  2 16  1  0  0  0  0
  3 13  2  0  0  0  0
  4 14  2  0  0  0  0
  5 17  1  0  0  0  0
  5 31  1  0  0  0  0
  6 18  1  0  0  0  0
  6 32  1  0  0  0  0
  7  9  2  0  0  0  0
  7 11  1  0  0  0  0
  7 13  1  0  0  0  0
  8 10  2  0  0  0  0
  8 12  1  0  0  0  0
  8 14  1  0  0  0  0
  9 10  1  0  0  0  0
  9 19  1  0  0  0  0
 10 20  1  0  0  0  0
 11 12  2  0  0  0  0
 11 21  1  0  0  0  0
 12 22  1  0  0  0  0
 15 17  1  0  0  0  0
 15 23  1  0  0  0  0
 15 24  1  0  0  0  0
 16 18  1  0  0  0  0
 16 25  1  0  0  0  0
 16 26  1  0  0  0  0
 17 27  1  0  0  0  0
 17 28  1  0  0  0  0
 18 29  1  0  0  0  0
 18 30  1  0  0  0  0
M  END
>  <PUBCHEM_COMPOUND_CID>
13739

>  <PUBCHEM_CONFORMER_RMSD>
0.8

>  <PUBCHEM_CONFORMER_DIVERSEORDER>
1
57
49
30
42
33
44
14
53
22
19
10
12
45
3
41
11
32
40
15
36
55
29
9
38
4
58
17
37
43
52
24
51
35
20
56
31
39
16
2
21
23
28
34
26
18
25
5
46
47
6
48
8
13
50
7
27
54

>  <PUBCHEM_MMFF94_PARTIAL_CHARGES>
24
1 -0.43
10 -0.15
11 -0.15
12 -0.15
13 0.63
14 0.63
15 0.28
16 0.28
17 0.28
18 0.28
19 0.15
2 -0.43
20 0.15
21 0.15
22 0.15
3 -0.57
31 0.4
32 0.4
4 -0.57
5 -0.68
6 -0.68
7 0.09
8 0.09
9 -0.15

>  <PUBCHEM_EFFECTIVE_ROTOR_COUNT>
8

>  <PUBCHEM_PHARMACOPHORE_FEATURES>
7
1 3 acceptor
1 4 acceptor
1 5 acceptor
1 5 donor
1 6 acceptor
1 6 donor
6 7 8 9 10 11 12 rings

>  <PUBCHEM_HEAVY_ATOM_COUNT>
18

>  <PUBCHEM_ATOM_DEF_STEREO_COUNT>
0

>  <PUBCHEM_ATOM_UDEF_STEREO_COUNT>
0

>  <PUBCHEM_BOND_DEF_STEREO_COUNT>
0

>  <PUBCHEM_BOND_UDEF_STEREO_COUNT>
0

>  <PUBCHEM_ISOTOPIC_ATOM_COUNT>
0

>  <PUBCHEM_COMPONENT_COUNT>
1

>  <PUBCHEM_CACTVS_TAUTO_COUNT>
1

>  <PUBCHEM_CONFORMER_ID>
000035AB00000001

>  <PUBCHEM_MMFF94_ENERGY>
44.2295

>  <PUBCHEM_FEATURE_SELFOVERLAP>
35.523

>  <PUBCHEM_SHAPE_FINGERPRINT>
10968037 39 18410012152543713039
11089746 13 12540695946557521839
11806522 49 18410009918986535353
12236239 1 18410855447243259972
13533116 47 16660916683113605170
13862211 1 18410006628598832378
14251718 22 18411136939420945249
14251732 16 18410855494493175089
14528608 73 18409733958879929100
14787075 74 18409729560226607264
15196674 1 18338516313804112001
17834072 33 18412824698380719020
19489759 90 14418129604479230181
200 152 18412260623910614371
20645477 70 18199752449496498934
21267235 1 18412550889973548114
221490 88 18263928916185329587
23272321 79 18409451383816681488
23402539 116 18335415751807977061
23402655 69 18339074883518801269
23559900 14 18262797501097503721
34797466 226 17203614826284060588
350125 39 18411983563781164433
3545911 37 18410577275887755602
4325135 7 18410855468718096782
4340502 62 16732706042963078794
4463277 17 18412265021635592889
474 4 17676779746965951636
474229 33 18411136935353240571
5104073 3 18266741281369621474
7062679 117 18341894121495265503

>  <PUBCHEM_SHAPE_MULTIPOLES>
335.22
13.61
1.83
0.69
0
0
-0.08
0
-1.87
0
-0.09
0
0
-0.86

>  <PUBCHEM_SHAPE_SELFOVERLAP>
687.263

>  <PUBCHEM_SHAPE_VOLUME>
192.6

>  <PUBCHEM_COORDINATE_TYPE>
2
5
10

$$$$
13739
 OpenBabel11092011363D

 32 32  0  0  0  0  0  0  0  0999 V2000
    3.5844   -0.0957    0.1288 O   0  0  0  0  0  0  0  0  0  0  0  0
   -3.5178    0.2583   -0.5136 O   0  0  0  0  0  0  0  0  0  0  0  0
    2.8958   -2.2922    0.1329 O   0  0  0  0  0  0  0  0  0  0  0  0
   -2.9494    2.1624    0.6485 O   0  0  0  0  0  0  0  0  0  0  0  0
    6.7115   -1.3243   -1.2789 O   0  0  0  0  0  0  0  0  0  0  0  0
   -4.6229   -1.8954    0.8695 O   0  0  0  0  0  0  0  0  0  0  0  0
    1.2904   -0.5293    0.1305 C   0  0  0  0  0  0  0  0  0  0  0  0
   -1.2905    0.5298    0.1314 C   0  0  0  0  0  0  0  0  0  0  0  0
    0.1866   -1.3821    0.1311 C   0  0  0  0  0  0  0  0  0  0  0  0
   -1.1039   -0.8526    0.1315 C   0  0  0  0  0  0  0  0  0  0  0  0
    1.1037    0.8530    0.1304 C   0  0  0  0  0  0  0  0  0  0  0  0
   -0.1867    1.3826    0.1310 C   0  0  0  0  0  0  0  0  0  0  0  0
    2.6356   -1.0816    0.1313 C   0  0  0  0  0  0  0  0  0  0  0  0
   -2.6356    1.0817    0.1316 C   0  0  0  0  0  0  0  0  0  0  0  0
    4.9532   -0.5149    0.1298 C   0  0  0  0  0  0  0  0  0  0  0  0
   -4.8783    0.2920   -0.0693 C   0  0  0  0  0  0  0  0  0  0  0  0
    5.3563   -0.8922   -1.2827 C   0  0  0  0  0  0  0  0  0  0  0  0
   -5.0133   -0.5624    1.1764 C   0  0  0  0  0  0  0  0  0  0  0  0
    0.3104   -2.4619    0.1314 H   0  0  0  0  0  0  0  0  0  0  0  0
   -1.9332   -1.5543    0.1317 H   0  0  0  0  0  0  0  0  0  0  0  0
    1.9330    1.5547    0.1300 H   0  0  0  0  0  0  0  0  0  0  0  0
   -0.3105    2.4624    0.1308 H   0  0  0  0  0  0  0  0  0  0  0  0
    5.5851    0.3029    0.4926 H   0  0  0  0  0  0  0  0  0  0  0  0
    5.0522   -1.3811    0.7940 H   0  0  0  0  0  0  0  0  0  0  0  0
   -5.1663    1.3254    0.1516 H   0  0  0  0  0  0  0  0  0  0  0  0
   -5.5142   -0.1085   -0.8670 H   0  0  0  0  0  0  0  0  0  0  0  0
    5.2551   -0.0458   -1.9680 H   0  0  0  0  0  0  0  0  0  0  0  0
    4.7493   -1.7247   -1.6505 H   0  0  0  0  0  0  0  0  0  0  0  0
   -6.0470   -0.5763    1.5325 H   0  0  0  0  0  0  0  0  0  0  0  0
   -4.3633   -0.1993    1.9784 H   0  0  0  0  0  0  0  0  0  0  0  0
    7.2557   -0.5798   -0.9702 H   0  0  0  0  0  0  0  0  0  0  0  0
   -3.7078   -1.8632    0.5420 H   0  0  0  0  0  0  0  0  0  0  0  0
  1 13  1  0  0  0  0
  1 15  1  0  0  0  0
  2 14  1  0  0  0  0
  2 16  1  0  0  0  0
  3 13  2  0  0  0  0
  4 14  2  0  0  0  0
  5 17  1  0  0  0  0
  5 31  1  0  0  0  0
  6 18  1  0  0  0  0
  6 32  1  0  0  0  0
  7  9  2  0  0  0  0
  7 11  1  0  0  0  0
  7 13  1  0  0  0  0
  8 10  2  0  0  0  0
  8 12  1  0  0  0  0
  8 14  1  0  0  0  0
  9 10  1  0  0  0  0
  9 19  1  0  0  0  0
 10 20  1  0  0  0  0
 11 12  2  0  0  0  0
 11 21  1  0  0  0  0
 12 22  1  0  0  0  0
 15 17  1  0  0  0  0
 15 23  1  0  0  0  0
 15 24  1  0  0  0  0
 16 18  1  0  0  0  0
 16 25  1  0  0  0  0
 16 26  1  0  0  0  0
 17 27  1  0  0  0  0
 17 28  1  0  0  0  0
 18 29  1  0  0  0  0
 18 30  1  0  0  0  0
M  END
>  <PUBCHEM_COMPOUND_CID>
13739

>  <PUBCHEM_CONFORMER_RMSD>
0.8

>  <PUBCHEM_CONFORMER_DIVERSEORDER>
1
57
49
30
42
33
44
14
53
22
19
10
12
45
3
41
11
32
40
15
36
55
29
9
38
4
58
17
37
43
52
24
51
35
20
56
31
39
16
2
21
23
28
34
26
18
25
5
46
47
6
48
8
13
50
7
27
54

>  <PUBCHEM_MMFF94_PARTIAL_CHARGES>
24
1 -0.43
10 -0.15
11 -0.15
12 -0.15
13 0.63
14 0.63
15 0.28
16 0.28
17 0.28
18 0.28
19 0.15
2 -0.43
20 0.15
21 0.15
22 0.15
3 -0.57
31 0.4
32 0.4
4 -0.57
5 -0.68
6 -0.68
7 0.09
8 0.09
9 -0.15

>  <PUBCHEM_EFFECTIVE_ROTOR_COUNT>
8

>  <PUBCHEM_PHARMACOPHORE_FEATURES>
7
1 3 acceptor
1 4 acceptor
1 5 acceptor
1 5 donor
1 6 acceptor
1 6 donor
6 7 8 9 10 11 12 rings

>  <PUBCHEM_HEAVY_ATOM_COUNT>
18

>  <PUBCHEM_ATOM_DEF_STEREO_COUNT>
0

>  <PUBCHEM_ATOM_UDEF_STEREO_COUNT>
0

>  <PUBCHEM_BOND_DEF_STEREO_COUNT>
0

>  <PUBCHEM_BOND_UDEF_STEREO_COUNT>
0

>  <PUBCHEM_ISOTOPIC_ATOM_COUNT>
0

>  <PUBCHEM_COMPONENT_COUNT>
1

>  <PUBCHEM_CACTVS_TAUTO_COUNT>
1

>  <PUBCHEM_CONFORMER_ID>
000035AB00000001

>  <PUBCHEM_MMFF94_ENERGY>
44.2295

>  <PUBCHEM_FEATURE_SELFOVERLAP>
35.523

>  <PUBCHEM_SHAPE_FINGERPRINT>
10968037 39 18410012152543713039
11089746 13 12540695946557521839
11806522 49 18410009918986535353
12236239 1 18410855447243259972
13533116 47 16660916683113605170
13862211 1 18410006628598832378
14251718 22 18411136939420945249
14251732 16 18410855494493175089
14528608 73 18409733958879929100
14787075 74 18409729560226607264
15196674 1 18338516313804112001
17834072 33 18412824698380719020
19489759 90 14418129604479230181
200 152 18412260623910614371
20645477 70 18199752449496498934
21267235 1 18412550889973548114
221490 88 18263928916185329587
23272321 79 18409451383816681488
23402539 116 18335415751807977061
23402655 69 18339074883518801269
23559900 14 18262797501097503721
34797466 226 17203614826284060588
350125 39 18411983563781164433
3545911 37 18410577275887755602
4325135 7 18410855468718096782
4340502 62 16732706042963078794
4463277 17 18412265021635592889
474 4 17676779746965951636
474229 33 18411136935353240571
5104073 3 18266741281369621474
7062679 117 18341894121495265503

>  <PUBCHEM_SHAPE_MULTIPOLES>
335.22
13.61
1.83
0.69
0
0
-0.08
0
-1.87
0
-0.09
0
0
-0.86

>  <PUBCHEM_SHAPE_SELFOVERLAP>
687.263

>  <PUBCHEM_SHAPE_VOLUME>
192.6

>  <PUBCHEM_COORDINATE_TYPE>
2
5
10

$$$$
13739
 OpenBabel11092011363D

 32 32  0  0  0  0  0  0  0  0999 V2000
    3.5844   -0.0957    0.1288 O   0  0  0  0  0  0  0  0  0  0  0  0
   -2.6184    2.4500    0.1343 O   0  0  0  0  0  0  0  0  0  0  0  0
    2.8958   -2.2922    0.1329 O   0  0  0  0  0  0  0  0  0  0  0  0
   -3.6715    0.4029    0.1307 O   0  0  0  0  0  0  0  0  0  0  0  0
    2.8391   -1.0239    2.6652 O   0  0  0  0  0  0  0  0  0  0  0  0
   -5.3376    3.0650    0.1100 O   0  0  0  0  0  0  0  0  0  0  0  0
    1.2904   -0.5293    0.1305 C   0  0  0  0  0  0  0  0  0  0  0  0
   -1.2905    0.5298    0.1314 C   0  0  0  0  0  0  0  0  0  0  0  0
    0.1866   -1.3821    0.1311 C   0  0  0  0  0  0  0  0  0  0  0  0
   -1.1039   -0.8526    0.1315 C   0  0  0  0  0  0  0  0  0  0  0  0
    1.1037    0.8530    0.1304 C   0  0  0  0  0  0  0  0  0  0  0  0
   -0.1867    1.3826    0.1310 C   0  0  0  0  0  0  0  0  0  0  0  0
    2.6356   -1.0816    0.1313 C   0  0  0  0  0  0  0  0  0  0  0  0
   -2.6356    1.0817    0.1316 C   0  0  0  0  0  0  0  0  0  0  0  0
    4.5030   -0.0788    1.2267 C   0  0  0  0  0  0  0  0  0  0  0  0
   -3.2331    3.1029    1.2504 C   0  0  0  0  0  0  0  0  0  0  0  0
    3.7261    0.0785    2.5196 C   0  0  0  0  0  0  0  0  0  0  0  0
   -4.6915    2.6934    1.3215 C   0  0  0  0  0  0  0  0  0  0  0  0
    0.3104   -2.4619    0.1314 H   0  0  0  0  0  0  0  0  0  0  0  0
   -1.9332   -1.5543    0.1317 H   0  0  0  0  0  0  0  0  0  0  0  0
    1.9330    1.5547    0.1300 H   0  0  0  0  0  0  0  0  0  0  0  0
   -0.3105    2.4624    0.1308 H   0  0  0  0  0  0  0  0  0  0  0  0
    5.0694   -1.0162    1.2431 H   0  0  0  0  0  0  0  0  0  0  0  0
    5.1892    0.7655    1.0943 H   0  0  0  0  0  0  0  0  0  0  0  0
   -2.7173    2.8153    2.1729 H   0  0  0  0  0  0  0  0  0  0  0  0
   -3.1566    4.1863    1.1042 H   0  0  0  0  0  0  0  0  0  0  0  0
    3.1454    1.0053    2.5280 H   0  0  0  0  0  0  0  0  0  0  0  0
    4.4003    0.0710    3.3811 H   0  0  0  0  0  0  0  0  0  0  0  0
   -5.1987    3.1909    2.1526 H   0  0  0  0  0  0  0  0  0  0  0  0
   -4.7938    1.6099    1.4368 H   0  0  0  0  0  0  0  0  0  0  0  0
    2.2263   -1.0089    1.9103 H   0  0  0  0  0  0  0  0  0  0  0  0
   -4.8665    2.6256   -0.6186 H   0  0  0  0  0  0  0  0  0  0  0  0
  1 13  1  0  0  0  0
  1 15  1  0  0  0  0
  2 14  1  0  0  0  0
  2 16  1  0  0  0  0
  3 13  2  0  0  0  0
  4 14  2  0  0  0  0
  5 17  1  0  0  0  0
  5 31  1  0  0  0  0
  6 18  1  0  0  0  0
  6 32  1  0  0  0  0
  7  9  2  0  0  0  0
  7 11  1  0  0  0  0
  7 13  1  0  0  0  0
  8 10  2  0  0  0  0
  8 12  1  0  0  0  0
  8 14  1  0  0  0  0
  9 10  1  0  0  0  0
  9 19  1  0  0  0  0
 10 20  1  0  0  0  0
 11 12  2  0  0  0  0
 11 21  1  0  0  0  0
 12 22  1  0  0  0  0
 15 17  1  0  0  0  0
 15 23  1  0  0  0  0
 15 24  1  0  0  0  0
 16 18  1  0  0  0  0
 16 25  1  0  0  0  0
 16 26  1  0  0  0  0
 17 27  1  0  0  0  0
 17 28  1  0  0  0  0
 18 29  1  0  0  0  0
 18 30  1  0  0  0  0
M  END
>  <PUBCHEM_COMPOUND_CID>
13739

>  <PUBCHEM_CONFORMER_RMSD>
0.8

>  <PUBCHEM_CONFORMER_DIVERSEORDER>
1
57
49
30
42
33
44
14
53
22
19
10
12
45
3
41
11
32
40
15
36
55
29
9
38
4
58
17
37
43
52
24
51
35
20
56
31
39
16
2
21
23
28
34
26
18
25
5
46
47
6
48
8
13
50
7
27
54

>  <PUBCHEM_MMFF94_PARTIAL_CHARGES>
24
1 -0.43
10 -0.15
11 -0.15
12 -0.15
13 0.63
14 0.63
15 0.28
16 0.28
17 0.28
18 0.28
19 0.15
2 -0.43
20 0.15
21 0.15
22 0.15
3 -0.57
31 0.4
32 0.4
4 -0.57
5 -0.68
6 -0.68
7 0.09
8 0.09
9 -0.15

>  <PUBCHEM_EFFECTIVE_ROTOR_COUNT>
8

>  <PUBCHEM_PHARMACOPHORE_FEATURES>
7
1 3 acceptor
1 4 acceptor
1 5 acceptor
1 5 donor
1 6 acceptor
1 6 donor
6 7 8 9 10 11 12 rings

>  <PUBCHEM_HEAVY_ATOM_COUNT>
18

>  <PUBCHEM_ATOM_DEF_STEREO_COUNT>
0

>  <PUBCHEM_ATOM_UDEF_STEREO_COUNT>
0

>  <PUBCHEM_BOND_DEF_STEREO_COUNT>
0

>  <PUBCHEM_BOND_UDEF_STEREO_COUNT>
0

>  <PUBCHEM_ISOTOPIC_ATOM_COUNT>
0

>  <PUBCHEM_COMPONENT_COUNT>
1

>  <PUBCHEM_CACTVS_TAUTO_COUNT>
1

>  <PUBCHEM_CONFORMER_ID>
000035AB00000001

>  <PUBCHEM_MMFF94_ENERGY>
44.2295

>  <PUBCHEM_FEATURE_SELFOVERLAP>
35.523

>  <PUBCHEM_SHAPE_FINGERPRINT>
10968037 39 18410012152543713039
11089746 13 12540695946557521839
11806522 49 18410009918986535353
12236239 1 18410855447243259972
13533116 47 16660916683113605170
13862211 1 18410006628598832378
14251718 22 18411136939420945249
14251732 16 18410855494493175089
14528608 73 18409733958879929100
14787075 74 18409729560226607264
15196674 1 18338516313804112001
17834072 33 18412824698380719020
19489759 90 14418129604479230181
200 152 18412260623910614371
20645477 70 18199752449496498934
21267235 1 18412550889973548114
221490 88 18263928916185329587
23272321 79 18409451383816681488
23402539 116 18335415751807977061
23402655 69 18339074883518801269
23559900 14 18262797501097503721
34797466 226 17203614826284060588
350125 39 18411983563781164433
3545911 37 18410577275887755602
4325135 7 18410855468718096782
4340502 62 16732706042963078794
4463277 17 18412265021635592889
474 4 17676779746965951636
474229 33 18411136935353240571
5104073 3 18266741281369621474
7062679 117 18341894121495265503

>  <PUBCHEM_SHAPE_MULTIPOLES>
335.22
13.61
1.83
0.69
0
0
-0.08
0
-1.87
0
-0.09
0
0
-0.86

>  <PUBCHEM_SHAPE_SELFOVERLAP>
687.263

>  <PUBCHEM_SHAPE_VOLUME>
192.6

>  <PUBCHEM_COORDINATE_TYPE>
2
5
10

$$$$
13739
 OpenBabel11092011363D

 32 32  0  0  0  0  0  0  0  0999 V2000
    3.5213   -0.2484    0.7586 O   0  0  0  0  0  0  0  0  0  0  0  0
   -2.6812    2.2971   -0.4954 O   0  0  0  0  0  0  0  0  0  0  0  0
    2.9466   -2.1692   -0.3723 O   0  0  0  0  0  0  0  0  0  0  0  0
   -3.6208    0.5262    0.6360 O   0  0  0  0  0  0  0  0  0  0  0  0
    7.0332   -0.9616    1.4124 O   0  0  0  0  0  0  0  0  0  0  0  0
   -2.9189    2.9166    2.2125 O   0  0  0  0  0  0  0  0  0  0  0  0
    1.2904   -0.5293    0.1305 C   0  0  0  0  0  0  0  0  0  0  0  0
   -1.2905    0.5298    0.1314 C   0  0  0  0  0  0  0  0  0  0  0  0
    0.1866   -1.3821    0.1311 C   0  0  0  0  0  0  0  0  0  0  0  0
   -1.1039   -0.8526    0.1315 C   0  0  0  0  0  0  0  0  0  0  0  0
    1.1037    0.8530    0.1304 C   0  0  0  0  0  0  0  0  0  0  0  0
   -0.1867    1.3826    0.1310 C   0  0  0  0  0  0  0  0  0  0  0  0
    2.6356   -1.0816    0.1313 C   0  0  0  0  0  0  0  0  0  0  0  0
   -2.6356    1.0817    0.1316 C   0  0  0  0  0  0  0  0  0  0  0  0
    4.6413   -0.8628    1.4047 C   0  0  0  0  0  0  0  0  0  0  0  0
   -3.6721    3.2242   -0.0390 C   0  0  0  0  0  0  0  0  0  0  0  0
    5.9208   -0.3389    0.7814 C   0  0  0  0  0  0  0  0  0  0  0  0
   -3.1706    3.9043    1.2203 C   0  0  0  0  0  0  0  0  0  0  0  0
    0.3104   -2.4619    0.1314 H   0  0  0  0  0  0  0  0  0  0  0  0
   -1.9332   -1.5543    0.1317 H   0  0  0  0  0  0  0  0  0  0  0  0
    1.9330    1.5547    0.1300 H   0  0  0  0  0  0  0  0  0  0  0  0
   -0.3105    2.4624    0.1308 H   0  0  0  0  0  0  0  0  0  0  0  0
    4.6219   -0.6245    2.4737 H   0  0  0  0  0  0  0  0  0  0  0  0
    4.5717   -1.9478    1.2666 H   0  0  0  0  0  0  0  0  0  0  0  0
   -3.8624    3.9703   -0.8179 H   0  0  0  0  0  0  0  0  0  0  0  0
   -4.5925    2.6702    0.1776 H   0  0  0  0  0  0  0  0  0  0  0  0
    6.0081    0.7452    0.8964 H   0  0  0  0  0  0  0  0  0  0  0  0
    5.9660   -0.5905   -0.2822 H   0  0  0  0  0  0  0  0  0  0  0  0
   -3.9132    4.6063    1.6094 H   0  0  0  0  0  0  0  0  0  0  0  0
   -2.2342    4.4397    1.0355 H   0  0  0  0  0  0  0  0  0  0  0  0
    7.0064   -0.7242    2.3550 H   0  0  0  0  0  0  0  0  0  0  0  0
   -2.2680    2.2940    1.8457 H   0  0  0  0  0  0  0  0  0  0  0  0
  1 13  1  0  0  0  0
  1 15  1  0  0  0  0
  2 14  1  0  0  0  0
  2 16  1  0  0  0  0
  3 13  2  0  0  0  0
  4 14  2  0  0  0  0
  5 17  1  0  0  0  0
  5 31  1  0  0  0  0
  6 18  1  0  0  0  0
  6 32  1  0  0  0  0
  7  9  2  0  0  0  0
  7 11  1  0  0  0  0
  7 13  1  0  0  0  0
  8 10  2  0  0  0  0
  8 12  1  0  0  0  0
  8 14  1  0  0  0  0
  9 10  1  0  0  0  0
  9 19  1  0  0  0  0
 10 20  1  0  0  0  0
 11 12  2  0  0  0  0
 11 21  1  0  0  0  0
 12 22  1  0  0  0  0
 15 17  1  0  0  0  0
 15 23  1  0  0  0  0
 15 24  1  0  0  0  0
 16 18  1  0  0  0  0
 16 25  1  0  0  0  0
 16 26  1  0  0  0  0
 17 27  1  0  0  0  0
 17 28  1  0  0  0  0
 18 29  1  0  0  0  0
 18 30  1  0  0  0  0
M  END
>  <PUBCHEM_COMPOUND_CID>
13739

>  <PUBCHEM_CONFORMER_RMSD>
0.8

>  <PUBCHEM_CONFORMER_DIVERSEORDER>
1
57
49
30
42
33
44
14
53
22
19
10
12
45
3
41
11
32
40
15
36
55
29
9
38
4
58
17
37
43
52
24
51
35
20
56
31
39
16
2
21
23
28
34
26
18
25
5
46
47
6
48
8
13
50
7
27
54

>  <PUBCHEM_MMFF94_PARTIAL_CHARGES>
24
1 -0.43
10 -0.15
11 -0.15
12 -0.15
13 0.63
14 0.63
15 0.28
16 0.28
17 0.28
18 0.28
19 0.15
2 -0.43
20 0.15
21 0.15
22 0.15
3 -0.57
31 0.4
32 0.4
4 -0.57
5 -0.68
6 -0.68
7 0.09
8 0.09
9 -0.15

>  <PUBCHEM_EFFECTIVE_ROTOR_COUNT>
8

>  <PUBCHEM_PHARMACOPHORE_FEATURES>
7
1 3 acceptor
1 4 acceptor
1 5 acceptor
1 5 donor
1 6 acceptor
1 6 donor
6 7 8 9 10 11 12 rings

>  <PUBCHEM_HEAVY_ATOM_COUNT>
18

>  <PUBCHEM_ATOM_DEF_STEREO_COUNT>
0

>  <PUBCHEM_ATOM_UDEF_STEREO_COUNT>
0

>  <PUBCHEM_BOND_DEF_STEREO_COUNT>
0

>  <PUBCHEM_BOND_UDEF_STEREO_COUNT>
0

>  <PUBCHEM_ISOTOPIC_ATOM_COUNT>
0

>  <PUBCHEM_COMPONENT_COUNT>
1

>  <PUBCHEM_CACTVS_TAUTO_COUNT>
1

>  <PUBCHEM_CONFORMER_ID>
000035AB00000001

>  <PUBCHEM_MMFF94_ENERGY>
44.2295

>  <PUBCHEM_FEATURE_SELFOVERLAP>
35.523

>  <PUBCHEM_SHAPE_FINGERPRINT>
10968037 39 18410012152543713039
11089746 13 12540695946557521839
11806522 49 18410009918986535353
12236239 1 18410855447243259972
13533116 47 16660916683113605170
13862211 1 18410006628598832378
14251718 22 18411136939420945249
14251732 16 18410855494493175089
14528608 73 18409733958879929100
14787075 74 18409729560226607264
15196674 1 18338516313804112001
17834072 33 18412824698380719020
19489759 90 14418129604479230181
200 152 18412260623910614371
20645477 70 18199752449496498934
21267235 1 18412550889973548114
221490 88 18263928916185329587
23272321 79 18409451383816681488
23402539 116 18335415751807977061
23402655 69 18339074883518801269
23559900 14 18262797501097503721
34797466 226 17203614826284060588
350125 39 18411983563781164433
3545911 37 18410577275887755602
4325135 7 18410855468718096782
4340502 62 16732706042963078794
4463277 17 18412265021635592889
474 4 17676779746965951636
474229 33 18411136935353240571
5104073 3 18266741281369621474
7062679 117 18341894121495265503

>  <PUBCHEM_SHAPE_MULTIPOLES>
335.22
13.61
1.83
0.69
0
0
-0.08
0
-1.87
0
-0.09
0
0
-0.86

>  <PUBCHEM_SHAPE_SELFOVERLAP>
687.263

>  <PUBCHEM_SHAPE_VOLUME>
192.6

>  <PUBCHEM_COORDINATE_TYPE>
2
5
10

$$$$
13739
 OpenBabel11092011363D

 32 32  0  0  0  0  0  0  0  0999 V2000
    3.5213   -0.2484    0.7586 O   0  0  0  0  0  0  0  0  0  0  0  0
   -3.5178    0.2583   -0.5136 O   0  0  0  0  0  0  0  0  0  0  0  0
    2.9466   -2.1692   -0.3723 O   0  0  0  0  0  0  0  0  0  0  0  0
   -2.9494    2.1624    0.6485 O   0  0  0  0  0  0  0  0  0  0  0  0
    5.5269    1.0110   -0.7388 O   0  0  0  0  0  0  0  0  0  0  0  0
   -5.9269    1.6605   -0.4620 O   0  0  0  0  0  0  0  0  0  0  0  0
    1.2904   -0.5293    0.1305 C   0  0  0  0  0  0  0  0  0  0  0  0
   -1.2905    0.5298    0.1314 C   0  0  0  0  0  0  0  0  0  0  0  0
    0.1866   -1.3821    0.1311 C   0  0  0  0  0  0  0  0  0  0  0  0
   -1.1039   -0.8526    0.1315 C   0  0  0  0  0  0  0  0  0  0  0  0
    1.1037    0.8530    0.1304 C   0  0  0  0  0  0  0  0  0  0  0  0
   -0.1867    1.3826    0.1310 C   0  0  0  0  0  0  0  0  0  0  0  0
    2.6356   -1.0816    0.1313 C   0  0  0  0  0  0  0  0  0  0  0  0
   -2.6356    1.0817    0.1316 C   0  0  0  0  0  0  0  0  0  0  0  0
    4.8835   -0.6837    0.8249 C   0  0  0  0  0  0  0  0  0  0  0  0
   -4.6304   -0.2225    0.2483 C   0  0  0  0  0  0  0  0  0  0  0  0
    5.5617   -0.3907   -0.4996 C   0  0  0  0  0  0  0  0  0  0  0  0
   -5.9167    0.2391   -0.4092 C   0  0  0  0  0  0  0  0  0  0  0  0
    0.3104   -2.4619    0.1314 H   0  0  0  0  0  0  0  0  0  0  0  0
   -1.9332   -1.5543    0.1317 H   0  0  0  0  0  0  0  0  0  0  0  0
    1.9330    1.5547    0.1300 H   0  0  0  0  0  0  0  0  0  0  0  0
   -0.3105    2.4624    0.1308 H   0  0  0  0  0  0  0  0  0  0  0  0
    5.3975   -0.1524    1.6332 H   0  0  0  0  0  0  0  0  0  0  0  0
    4.8960   -1.7613    1.0244 H   0  0  0  0  0  0  0  0  0  0  0  0
   -4.6015   -1.3166    0.2889 H   0  0  0  0  0  0  0  0  0  0  0  0
   -4.5611    0.1889    1.2617 H   0  0  0  0  0  0  0  0  0  0  0  0
    5.0644   -0.9049   -1.3269 H   0  0  0  0  0  0  0  0  0  0  0  0
    6.6133   -0.6912   -0.4722 H   0  0  0  0  0  0  0  0  0  0  0  0
   -6.7894   -0.0938    0.1594 H   0  0  0  0  0  0  0  0  0  0  0  0
   -5.9939   -0.1347   -1.4348 H   0  0  0  0  0  0  0  0  0  0  0  0
    4.5928    1.2778   -0.7825 H   0  0  0  0  0  0  0  0  0  0  0  0
   -5.1385    1.9396   -0.9583 H   0  0  0  0  0  0  0  0  0  0  0  0
  1 13  1  0  0  0  0
  1 15  1  0  0  0  0
  2 14  1  0  0  0  0
  2 16  1  0  0  0  0
  3 13  2  0  0  0  0
  4 14  2  0  0  0  0
  5 17  1  0  0  0  0
  5 31  1  0  0  0  0
  6 18  1  0  0  0  0
  6 32  1  0  0  0  0
  7  9  2  0  0  0  0
  7 11  1  0  0  0  0
  7 13  1  0  0  0  0
  8 10  2  0  0  0  0
  8 12  1  0  0  0  0
  8 14  1  0  0  0  0
  9 10  1  0  0  0  0
  9 19  1  0  0  0  0
 10 20  1  0  0  0  0
 11 12  2  0  0  0  0
 11 21  1  0  0  0  0
 12 22  1  0  0  0  0
 15 17  1  0  0  0  0
 15 23  1  0  0  0  0
 15 24  1  0  0  0  0
 16 18  1  0  0  0  0
 16 25  1  0  0  0  0
 16 26  1  0  0  0  0
 17 27  1  0  0  0  0
 17 28  1  0  0  0  0
 18 29  1  0  0  0  0
 18 30  1  0  0  0  0
M  END
>  <PUBCHEM_COMPOUND_CID>
13739

>  <PUBCHEM_CONFORMER_RMSD>
0.8

>  <PUBCHEM_CONFORMER_DIVERSEORDER>
1
57
49
30
42
33
44
14
53
22
19
10
12
45
3
41
11
32
40
15
36
55
29
9
38
4
58
17
37
43
52
24
51
35
20
56
31
39
16
2
21
23
28
34
26
18
25
5
46
47
6
48
8
13
50
7
27
54

>  <PUBCHEM_MMFF94_PARTIAL_CHARGES>
24
1 -0.43
10 -0.15
11 -0.15
12 -0.15
13 0.63
14 0.63
15 0.28
16 0.28
17 0.28
18 0.28
19 0.15
2 -0.43
20 0.15
21 0.15
22 0.15
3 -0.57
31 0.4
32 0.4
4 -0.57
5 -0.68
6 -0.68
7 0.09
8 0.09
9 -0.15

>  <PUBCHEM_EFFECTIVE_ROTOR_COUNT>
8

>  <PUBCHEM_PHARMACOPHORE_FEATURES>
7
1 3 acceptor
1 4 acceptor
1 5 acceptor
1 5 donor
1 6 acceptor
1 6 donor
6 7 8 9 10 11 12 rings

>  <PUBCHEM_HEAVY_ATOM_COUNT>
18

>  <PUBCHEM_ATOM_DEF_STEREO_COUNT>
0

>  <PUBCHEM_ATOM_UDEF_STEREO_COUNT>
0

>  <PUBCHEM_BOND_DEF_STEREO_COUNT>
0

>  <PUBCHEM_BOND_UDEF_STEREO_COUNT>
0

>  <PUBCHEM_ISOTOPIC_ATOM_COUNT>
0

>  <PUBCHEM_COMPONENT_COUNT>
1

>  <PUBCHEM_CACTVS_TAUTO_COUNT>
1

>  <PUBCHEM_CONFORMER_ID>
000035AB00000001

>  <PUBCHEM_MMFF94_ENERGY>
44.2295

>  <PUBCHEM_FEATURE_SELFOVERLAP>
35.523

>  <PUBCHEM_SHAPE_FINGERPRINT>
10968037 39 18410012152543713039
11089746 13 12540695946557521839
11806522 49 18410009918986535353
12236239 1 18410855447243259972
13533116 47 16660916683113605170
13862211 1 18410006628598832378
14251718 22 18411136939420945249
14251732 16 18410855494493175089
14528608 73 18409733958879929100
14787075 74 18409729560226607264
15196674 1 18338516313804112001
17834072 33 18412824698380719020
19489759 90 14418129604479230181
200 152 18412260623910614371
20645477 70 18199752449496498934
21267235 1 18412550889973548114
221490 88 18263928916185329587
23272321 79 18409451383816681488
23402539 116 18335415751807977061
23402655 69 18339074883518801269
23559900 14 18262797501097503721
34797466 226 17203614826284060588
350125 39 18411983563781164433
3545911 37 18410577275887755602
4325135 7 18410855468718096782
4340502 62 16732706042963078794
4463277 17 18412265021635592889
474 4 17676779746965951636
474229 33 18411136935353240571
5104073 3 18266741281369621474
7062679 117 18341894121495265503

>  <PUBCHEM_SHAPE_MULTIPOLES>
335.22
13.61
1.83
0.69
0
0
-0.08
0
-1.87
0
-0.09
0
0
-0.86

>  <PUBCHEM_SHAPE_SELFOVERLAP>
687.263

>  <PUBCHEM_SHAPE_VOLUME>
192.6

>  <PUBCHEM_COORDINATE_TYPE>
2
5
10

$$$$
13739
 OpenBabel11092011363D

 32 32  0  0  0  0  0  0  0  0999 V2000
    3.5844   -0.0957    0.1288 O   0  0  0  0  0  0  0  0  0  0  0  0
   -2.6184    2.4500    0.1343 O   0  0  0  0  0  0  0  0  0  0  0  0
    2.8958   -2.2922    0.1329 O   0  0  0  0  0  0  0  0  0  0  0  0
   -3.6715    0.4029    0.1307 O   0  0  0  0  0  0  0  0  0  0  0  0
    2.9858    1.2922    2.4715 O   0  0  0  0  0  0  0  0  0  0  0  0
   -5.2689    1.8056   -0.5063 O   0  0  0  0  0  0  0  0  0  0  0  0
    1.2904   -0.5293    0.1305 C   0  0  0  0  0  0  0  0  0  0  0  0
   -1.2905    0.5298    0.1314 C   0  0  0  0  0  0  0  0  0  0  0  0
    0.1866   -1.3821    0.1311 C   0  0  0  0  0  0  0  0  0  0  0  0
   -1.1039   -0.8526    0.1315 C   0  0  0  0  0  0  0  0  0  0  0  0
    1.1037    0.8530    0.1304 C   0  0  0  0  0  0  0  0  0  0  0  0
   -0.1867    1.3826    0.1310 C   0  0  0  0  0  0  0  0  0  0  0  0
    2.6356   -1.0816    0.1313 C   0  0  0  0  0  0  0  0  0  0  0  0
   -2.6356    1.0817    0.1316 C   0  0  0  0  0  0  0  0  0  0  0  0
    4.5030   -0.0788    1.2267 C   0  0  0  0  0  0  0  0  0  0  0  0
   -3.7189    3.1099    0.7693 C   0  0  0  0  0  0  0  0  0  0  0  0
    3.7261    0.0785    2.5196 C   0  0  0  0  0  0  0  0  0  0  0  0
   -4.8958    3.1404   -0.1866 C   0  0  0  0  0  0  0  0  0  0  0  0
    0.3104   -2.4619    0.1314 H   0  0  0  0  0  0  0  0  0  0  0  0
   -1.9332   -1.5543    0.1317 H   0  0  0  0  0  0  0  0  0  0  0  0
    1.9330    1.5547    0.1300 H   0  0  0  0  0  0  0  0  0  0  0  0
   -0.3105    2.4624    0.1308 H   0  0  0  0  0  0  0  0  0  0  0  0
    5.0694   -1.0162    1.2431 H   0  0  0  0  0  0  0  0  0  0  0  0
    5.1892    0.7655    1.0943 H   0  0  0  0  0  0  0  0  0  0  0  0
   -3.9916    2.5712    1.6831 H   0  0  0  0  0  0  0  0  0  0  0  0
   -3.4138    4.1327    1.0180 H   0  0  0  0  0  0  0  0  0  0  0  0
    4.3919    0.1024    3.3869 H   0  0  0  0  0  0  0  0  0  0  0  0
    3.0077   -0.7373    2.6427 H   0  0  0  0  0  0  0  0  0  0  0  0
   -4.6356    3.6599   -1.1129 H   0  0  0  0  0  0  0  0  0  0  0  0
   -5.7625    3.6308    0.2674 H   0  0  0  0  0  0  0  0  0  0  0  0
    3.6233    2.0210    2.3811 H   0  0  0  0  0  0  0  0  0  0  0  0
   -5.4834    1.3548    0.3283 H   0  0  0  0  0  0  0  0  0  0  0  0
  1 13  1  0  0  0  0
  1 15  1  0  0  0  0
  2 14  1  0  0  0  0
  2 16  1  0  0  0  0
  3 13  2  0  0  0  0
  4 14  2  0  0  0  0
  5 17  1  0  0  0  0
  5 31  1  0  0  0  0
  6 18  1  0  0  0  0
  6 32  1  0  0  0  0
  7  9  2  0  0  0  0
  7 11  1  0  0  0  0
  7 13  1  0  0  0  0
  8 10  2  0  0  0  0
  8 12  1  0  0  0  0
  8 14  1  0  0  0  0
  9 10  1  0  0  0  0
  9 19  1  0  0  0  0
 10 20  1  0  0  0  0
 11 12  2  0  0  0  0
 11 21  1  0  0  0  0
 12 22  1  0  0  0  0
 15 17  1  0  0  0  0
 15 23  1  0  0  0  0
 15 24  1  0  0  0  0
 16 18  1  0  0  0  0
 16 25  1  0  0  0  0
 16 26  1  0  0  0  0
 17 27  1  0  0  0  0
 17 28  1  0  0  0  0
 18 29  1  0  0  0  0
 18 30  1  0  0  0  0
M  END
>  <PUBCHEM_COMPOUND_CID>
13739

>  <PUBCHEM_CONFORMER_RMSD>
0.8

>  <PUBCHEM_CONFORMER_DIVERSEORDER>
1
57
49
30
42
33
44
14
53
22
19
10
12
45
3
41
11
32
40
15
36
55
29
9
38
4
58
17
37
43
52
24
51
35
20
56
31
39
16
2
21
23
28
34
26
18
25
5
46
47
6
48
8
13
50
7
27
54

>  <PUBCHEM_MMFF94_PARTIAL_CHARGES>
24
1 -0.43
10 -0.15
11 -0.15
12 -0.15
13 0.63
14 0.63
15 0.28
16 0.28
17 0.28
18 0.28
19 0.15
2 -0.43
20 0.15
21 0.15
22 0.15
3 -0.57
31 0.4
32 0.4
4 -0.57
5 -0.68
6 -0.68
7 0.09
8 0.09
9 -0.15

>  <PUBCHEM_EFFECTIVE_ROTOR_COUNT>
8

>  <PUBCHEM_PHARMACOPHORE_FEATURES>
7
1 3 acceptor
1 4 acceptor
1 5 acceptor
1 5 donor
1 6 acceptor
1 6 donor
6 7 8 9 10 11 12 rings

>  <PUBCHEM_HEAVY_ATOM_COUNT>
18

>  <PUBCHEM_ATOM_DEF_STEREO_COUNT>
0

>  <PUBCHEM_ATOM_UDEF_STEREO_COUNT>
0

>  <PUBCHEM_BOND_DEF_STEREO_COUNT>
0

>  <PUBCHEM_BOND_UDEF_STEREO_COUNT>
0

>  <PUBCHEM_ISOTOPIC_ATOM_COUNT>
0

>  <PUBCHEM_COMPONENT_COUNT>
1

>  <PUBCHEM_CACTVS_TAUTO_COUNT>
1

>  <PUBCHEM_CONFORMER_ID>
000035AB00000001

>  <PUBCHEM_MMFF94_ENERGY>
44.2295

>  <PUBCHEM_FEATURE_SELFOVERLAP>
35.523

>  <PUBCHEM_SHAPE_FINGERPRINT>
10968037 39 18410012152543713039
11089746 13 12540695946557521839
11806522 49 18410009918986535353
12236239 1 18410855447243259972
13533116 47 16660916683113605170
13862211 1 18410006628598832378
14251718 22 18411136939420945249
14251732 16 18410855494493175089
14528608 73 18409733958879929100
14787075 74 18409729560226607264
15196674 1 18338516313804112001
17834072 33 18412824698380719020
19489759 90 14418129604479230181
200 152 18412260623910614371
20645477 70 18199752449496498934
21267235 1 18412550889973548114
221490 88 18263928916185329587
23272321 79 18409451383816681488
23402539 116 18335415751807977061
23402655 69 18339074883518801269
23559900 14 18262797501097503721
34797466 226 17203614826284060588
350125 39 18411983563781164433
3545911 37 18410577275887755602
4325135 7 18410855468718096782
4340502 62 16732706042963078794
4463277 17 18412265021635592889
474 4 17676779746965951636
474229 33 18411136935353240571
5104073 3 18266741281369621474
7062679 117 18341894121495265503

>  <PUBCHEM_SHAPE_MULTIPOLES>
335.22
13.61
1.83
0.69
0
0
-0.08
0
-1.87
0
-0.09
0
0
-0.86

>  <PUBCHEM_SHAPE_SELFOVERLAP>
687.263

>  <PUBCHEM_SHAPE_VOLUME>
192.6

>  <PUBCHEM_COORDINATE_TYPE>
2
5
10

$$$$
13739
 OpenBabel11092011363D

 32 32  0  0  0  0  0  0  0  0999 V2000
    3.5213   -0.2484    0.7586 O   0  0  0  0  0  0  0  0  0  0  0  0
   -2.6812    2.2971   -0.4954 O   0  0  0  0  0  0  0  0  0  0  0  0
    2.9466   -2.1692   -0.3723 O   0  0  0  0  0  0  0  0  0  0  0  0
   -3.6208    0.5262    0.6360 O   0  0  0  0  0  0  0  0  0  0  0  0
    4.4177    1.4271   -1.3006 O   0  0  0  0  0  0  0  0  0  0  0  0
   -6.0220    3.0014   -1.7655 O   0  0  0  0  0  0  0  0  0  0  0  0
    1.2904   -0.5293    0.1305 C   0  0  0  0  0  0  0  0  0  0  0  0
   -1.2905    0.5298    0.1314 C   0  0  0  0  0  0  0  0  0  0  0  0
    0.1866   -1.3821    0.1311 C   0  0  0  0  0  0  0  0  0  0  0  0
   -1.1039   -0.8526    0.1315 C   0  0  0  0  0  0  0  0  0  0  0  0
    1.1037    0.8530    0.1304 C   0  0  0  0  0  0  0  0  0  0  0  0
   -0.1867    1.3826    0.1310 C   0  0  0  0  0  0  0  0  0  0  0  0
    2.6356   -1.0816    0.1313 C   0  0  0  0  0  0  0  0  0  0  0  0
   -2.6356    1.0817    0.1316 C   0  0  0  0  0  0  0  0  0  0  0  0
    4.8787   -0.2875    0.3053 C   0  0  0  0  0  0  0  0  0  0  0  0
   -3.9559    2.9460   -0.5576 C   0  0  0  0  0  0  0  0  0  0  0  0
    4.9231    0.1050   -1.1589 C   0  0  0  0  0  0  0  0  0  0  0  0
   -4.7619    2.3455   -1.6932 C   0  0  0  0  0  0  0  0  0  0  0  0
    0.3104   -2.4619    0.1314 H   0  0  0  0  0  0  0  0  0  0  0  0
   -1.9332   -1.5543    0.1317 H   0  0  0  0  0  0  0  0  0  0  0  0
    1.9330    1.5547    0.1300 H   0  0  0  0  0  0  0  0  0  0  0  0
   -0.3105    2.4624    0.1308 H   0  0  0  0  0  0  0  0  0  0  0  0
    5.4814    0.4098    0.8973 H   0  0  0  0  0  0  0  0  0  0  0  0
    5.2602   -1.3069    0.4339 H   0  0  0  0  0  0  0  0  0  0  0  0
   -4.4843    2.8076    0.3918 H   0  0  0  0  0  0  0  0  0  0  0  0
   -3.7932    4.0144   -0.7399 H   0  0  0  0  0  0  0  0  0  0  0  0
    4.3237   -0.5724   -1.7737 H   0  0  0  0  0  0  0  0  0  0  0  0
    5.9525    0.1077   -1.5292 H   0  0  0  0  0  0  0  0  0  0  0  0
   -4.9346    1.2782   -1.5302 H   0  0  0  0  0  0  0  0  0  0  0  0
   -4.2568    2.4838   -2.6541 H   0  0  0  0  0  0  0  0  0  0  0  0
    3.4963    1.4236   -0.9896 H   0  0  0  0  0  0  0  0  0  0  0  0
   -5.8502    3.9496   -1.8966 H   0  0  0  0  0  0  0  0  0  0  0  0
  1 13  1  0  0  0  0
  1 15  1  0  0  0  0
  2 14  1  0  0  0  0
  2 16  1  0  0  0  0
  3 13  2  0  0  0  0
  4 14  2  0  0  0  0
  5 17  1  0  0  0  0
  5 31  1  0  0  0  0
  6 18  1  0  0  0  0
  6 32  1  0  0  0  0
  7  9  2  0  0  0  0
  7 11  1  0  0  0  0
  7 13  1  0  0  0  0
  8 10  2  0  0  0  0
  8 12  1  0  0  0  0
  8 14  1  0  0  0  0
  9 10  1  0  0  0  0
  9 19  1  0  0  0  0
 10 20  1  0  0  0  0
 11 12  2  0  0  0  0
 11 21  1  0  0  0  0
 12 22  1  0  0  0  0
 15 17  1  0  0  0  0
 15 23  1  0  0  0  0
 15 24  1  0  0  0  0
 16 18  1  0  0  0  0
 16 25  1  0  0  0  0
 16 26  1  0  0  0  0
 17 27  1  0  0  0  0
 17 28  1  0  0  0  0
 18 29  1  0  0  0  0
 18 30  1  0  0  0  0
M  END
>  <PUBCHEM_COMPOUND_CID>
13739

>  <PUBCHEM_CONFORMER_RMSD>
0.8

>  <PUBCHEM_CONFORMER_DIVERSEORDER>
1
57
49
30
42
33
44
14
53
22
19
10
12
45
3
41
11
32
40
15
36
55
29
9
38
4
58
17
37
43
52
24
51
35
20
56
31
39
16
2
21
23
28
34
26
18
25
5
46
47
6
48
8
13
50
7
27
54

>  <PUBCHEM_MMFF94_PARTIAL_CHARGES>
24
1 -0.43
10 -0.15
11 -0.15
12 -0.15
13 0.63
14 0.63
15 0.28
16 0.28
17 0.28
18 0.28
19 0.15
2 -0.43
20 0.15
21 0.15
22 0.15
3 -0.57
31 0.4
32 0.4
4 -0.57
5 -0.68
6 -0.68
7 0.09
8 0.09
9 -0.15

>  <PUBCHEM_EFFECTIVE_ROTOR_COUNT>
8

>  <PUBCHEM_PHARMACOPHORE_FEATURES>
7
1 3 acceptor
1 4 acceptor
1 5 acceptor
1 5 donor
1 6 acceptor
1 6 donor
6 7 8 9 10 11 12 rings

>  <PUBCHEM_HEAVY_ATOM_COUNT>
18

>  <PUBCHEM_ATOM_DEF_STEREO_COUNT>
0

>  <PUBCHEM_ATOM_UDEF_STEREO_COUNT>
0

>  <PUBCHEM_BOND_DEF_STEREO_COUNT>
0

>  <PUBCHEM_BOND_UDEF_STEREO_COUNT>
0

>  <PUBCHEM_ISOTOPIC_ATOM_COUNT>
0

>  <PUBCHEM_COMPONENT_COUNT>
1

>  <PUBCHEM_CACTVS_TAUTO_COUNT>
1

>  <PUBCHEM_CONFORMER_ID>
000035AB00000001

>  <PUBCHEM_MMFF94_ENERGY>
44.2295

>  <PUBCHEM_FEATURE_SELFOVERLAP>
35.523

>  <PUBCHEM_SHAPE_FINGERPRINT>
10968037 39 18410012152543713039
11089746 13 12540695946557521839
11806522 49 18410009918986535353
12236239 1 18410855447243259972
13533116 47 16660916683113605170
13862211 1 18410006628598832378
14251718 22 18411136939420945249
14251732 16 18410855494493175089
14528608 73 18409733958879929100
14787075 74 18409729560226607264
15196674 1 18338516313804112001
17834072 33 18412824698380719020
19489759 90 14418129604479230181
200 152 18412260623910614371
20645477 70 18199752449496498934
21267235 1 18412550889973548114
221490 88 18263928916185329587
23272321 79 18409451383816681488
23402539 116 18335415751807977061
23402655 69 18339074883518801269
23559900 14 18262797501097503721
34797466 226 17203614826284060588
350125 39 18411983563781164433
3545911 37 18410577275887755602
4325135 7 18410855468718096782
4340502 62 16732706042963078794
4463277 17 18412265021635592889
474 4 17676779746965951636
474229 33 18411136935353240571
5104073 3 18266741281369621474
7062679 117 18341894121495265503

>  <PUBCHEM_SHAPE_MULTIPOLES>
335.22
13.61
1.83
0.69
0
0
-0.08
0
-1.87
0
-0.09
0
0
-0.86

>  <PUBCHEM_SHAPE_SELFOVERLAP>
687.263

>  <PUBCHEM_SHAPE_VOLUME>
192.6

>  <PUBCHEM_COORDINATE_TYPE>
2
5
10

$$$$
13739
 OpenBabel11092011363D

 32 32  0  0  0  0  0  0  0  0999 V2000
    3.5844   -0.0957    0.1288 O   0  0  0  0  0  0  0  0  0  0  0  0
   -2.6184    2.4500    0.1343 O   0  0  0  0  0  0  0  0  0  0  0  0
    2.8958   -2.2922    0.1329 O   0  0  0  0  0  0  0  0  0  0  0  0
   -3.6715    0.4029    0.1307 O   0  0  0  0  0  0  0  0  0  0  0  0
    4.9829   -2.3863   -0.6762 O   0  0  0  0  0  0  0  0  0  0  0  0
   -5.2689    1.8056   -0.5063 O   0  0  0  0  0  0  0  0  0  0  0  0
    1.2904   -0.5293    0.1305 C   0  0  0  0  0  0  0  0  0  0  0  0
   -1.2905    0.5298    0.1314 C   0  0  0  0  0  0  0  0  0  0  0  0
    0.1866   -1.3821    0.1311 C   0  0  0  0  0  0  0  0  0  0  0  0
   -1.1039   -0.8526    0.1315 C   0  0  0  0  0  0  0  0  0  0  0  0
    1.1037    0.8530    0.1304 C   0  0  0  0  0  0  0  0  0  0  0  0
   -0.1867    1.3826    0.1310 C   0  0  0  0  0  0  0  0  0  0  0  0
    2.6356   -1.0816    0.1313 C   0  0  0  0  0  0  0  0  0  0  0  0
   -2.6356    1.0817    0.1316 C   0  0  0  0  0  0  0  0  0  0  0  0
    4.4833   -0.0655   -0.9850 C   0  0  0  0  0  0  0  0  0  0  0  0
   -3.7189    3.1099    0.7693 C   0  0  0  0  0  0  0  0  0  0  0  0
    5.5746   -1.0961   -0.7683 C   0  0  0  0  0  0  0  0  0  0  0  0
   -4.8958    3.1404   -0.1866 C   0  0  0  0  0  0  0  0  0  0  0  0
    0.3104   -2.4619    0.1314 H   0  0  0  0  0  0  0  0  0  0  0  0
   -1.9332   -1.5543    0.1317 H   0  0  0  0  0  0  0  0  0  0  0  0
    1.9330    1.5547    0.1300 H   0  0  0  0  0  0  0  0  0  0  0  0
   -0.3105    2.4624    0.1308 H   0  0  0  0  0  0  0  0  0  0  0  0
    3.9329   -0.2922   -1.9045 H   0  0  0  0  0  0  0  0  0  0  0  0
    4.9203    0.9373   -1.0534 H   0  0  0  0  0  0  0  0  0  0  0  0
   -3.9916    2.5712    1.6831 H   0  0  0  0  0  0  0  0  0  0  0  0
   -3.4138    4.1327    1.0180 H   0  0  0  0  0  0  0  0  0  0  0  0
    6.1376   -0.8971    0.1480 H   0  0  0  0  0  0  0  0  0  0  0  0
    6.2658   -1.1138   -1.6160 H   0  0  0  0  0  0  0  0  0  0  0  0
   -4.6356    3.6599   -1.1129 H   0  0  0  0  0  0  0  0  0  0  0  0
   -5.7625    3.6308    0.2674 H   0  0  0  0  0  0  0  0  0  0  0  0
    4.3818   -2.3793    0.0883 H   0  0  0  0  0  0  0  0  0  0  0  0
   -5.4834    1.3548    0.3283 H   0  0  0  0  0  0  0  0  0  0  0  0
  1 13  1  0  0  0  0
  1 15  1  0  0  0  0
  2 14  1  0  0  0  0
  2 16  1  0  0  0  0
  3 13  2  0  0  0  0
  4 14  2  0  0  0  0
  5 17  1  0  0  0  0
  5 31  1  0  0  0  0
  6 18  1  0  0  0  0
  6 32  1  0  0  0  0
  7  9  2  0  0  0  0
  7 11  1  0  0  0  0
  7 13  1  0  0  0  0
  8 10  2  0  0  0  0
  8 12  1  0  0  0  0
  8 14  1  0  0  0  0
  9 10  1  0  0  0  0
  9 19  1  0  0  0  0
 10 20  1  0  0  0  0
 11 12  2  0  0  0  0
 11 21  1  0  0  0  0
 12 22  1  0  0  0  0
 15 17  1  0  0  0  0
 15 23  1  0  0  0  0
 15 24  1  0  0  0  0
 16 18  1  0  0  0  0
 16 25  1  0  0  0  0
 16 26  1  0  0  0  0
 17 27  1  0  0  0  0
 17 28  1  0  0  0  0
 18 29  1  0  0  0  0
 18 30  1  0  0  0  0
M  END
>  <PUBCHEM_COMPOUND_CID>
13739

>  <PUBCHEM_CONFORMER_RMSD>
0.8

>  <PUBCHEM_CONFORMER_DIVERSEORDER>
1
57
49
30
42
33
44
14
53
22
19
10
12
45
3
41
11
32
40
15
36
55
29
9
38
4
58
17
37
43
52
24
51
35
20
56
31
39
16
2
21
23
28
34
26
18
25
5
46
47
6
48
8
13
50
7
27
54

>  <PUBCHEM_MMFF94_PARTIAL_CHARGES>
24
1 -0.43
10 -0.15
11 -0.15
12 -0.15
13 0.63
14 0.63
15 0.28
16 0.28
17 0.28
18 0.28
19 0.15
2 -0.43
20 0.15
21 0.15
22 0.15
3 -0.57
31 0.4
32 0.4
4 -0.57
5 -0.68
6 -0.68
7 0.09
8 0.09
9 -0.15

>  <PUBCHEM_EFFECTIVE_ROTOR_COUNT>
8

>  <PUBCHEM_PHARMACOPHORE_FEATURES>
7
1 3 acceptor
1 4 acceptor
1 5 acceptor
1 5 donor
1 6 acceptor
1 6 donor
6 7 8 9 10 11 12 rings

>  <PUBCHEM_HEAVY_ATOM_COUNT>
18

>  <PUBCHEM_ATOM_DEF_STEREO_COUNT>
0

>  <PUBCHEM_ATOM_UDEF_STEREO_COUNT>
0

>  <PUBCHEM_BOND_DEF_STEREO_COUNT>
0

>  <PUBCHEM_BOND_UDEF_STEREO_COUNT>
0

>  <PUBCHEM_ISOTOPIC_ATOM_COUNT>
0

>  <PUBCHEM_COMPONENT_COUNT>
1

>  <PUBCHEM_CACTVS_TAUTO_COUNT>
1

>  <PUBCHEM_CONFORMER_ID>
000035AB00000001

>  <PUBCHEM_MMFF94_ENERGY>
44.2295

>  <PUBCHEM_FEATURE_SELFOVERLAP>
35.523

>  <PUBCHEM_SHAPE_FINGERPRINT>
10968037 39 18410012152543713039
11089746 13 12540695946557521839
11806522 49 18410009918986535353
12236239 1 18410855447243259972
13533116 47 16660916683113605170
13862211 1 18410006628598832378
14251718 22 18411136939420945249
14251732 16 18410855494493175089
14528608 73 18409733958879929100
14787075 74 18409729560226607264
15196674 1 18338516313804112001
17834072 33 18412824698380719020
19489759 90 14418129604479230181
200 152 18412260623910614371
20645477 70 18199752449496498934
21267235 1 18412550889973548114
221490 88 18263928916185329587
23272321 79 18409451383816681488
23402539 116 18335415751807977061
23402655 69 18339074883518801269
23559900 14 18262797501097503721
34797466 226 17203614826284060588
350125 39 18411983563781164433
3545911 37 18410577275887755602
4325135 7 18410855468718096782
4340502 62 16732706042963078794
4463277 17 18412265021635592889
474 4 17676779746965951636
474229 33 18411136935353240571
5104073 3 18266741281369621474
7062679 117 18341894121495265503

>  <PUBCHEM_SHAPE_MULTIPOLES>
335.22
13.61
1.83
0.69
0
0
-0.08
0
-1.87
0
-0.09
0
0
-0.86

>  <PUBCHEM_SHAPE_SELFOVERLAP>
687.263

>  <PUBCHEM_SHAPE_VOLUME>
192.6

>  <PUBCHEM_COORDINATE_TYPE>
2
5
10

$$$$
13739
 OpenBabel11092011363D

 32 32  0  0  0  0  0  0  0  0999 V2000
    3.5844   -0.0957    0.1288 O   0  0  0  0  0  0  0  0  0  0  0  0
   -3.5178    0.2583   -0.5136 O   0  0  0  0  0  0  0  0  0  0  0  0
    2.8958   -2.2922    0.1329 O   0  0  0  0  0  0  0  0  0  0  0  0
   -2.9494    2.1624    0.6485 O   0  0  0  0  0  0  0  0  0  0  0  0
    6.0038   -1.4740   -0.0111 O   0  0  0  0  0  0  0  0  0  0  0  0
   -5.3237   -0.3635    1.5173 O   0  0  0  0  0  0  0  0  0  0  0  0
    1.2904   -0.5293    0.1305 C   0  0  0  0  0  0  0  0  0  0  0  0
   -1.2905    0.5298    0.1314 C   0  0  0  0  0  0  0  0  0  0  0  0
    0.1866   -1.3821    0.1311 C   0  0  0  0  0  0  0  0  0  0  0  0
   -1.1039   -0.8526    0.1315 C   0  0  0  0  0  0  0  0  0  0  0  0
    1.1037    0.8530    0.1304 C   0  0  0  0  0  0  0  0  0  0  0  0
   -0.1867    1.3826    0.1310 C   0  0  0  0  0  0  0  0  0  0  0  0
    2.6356   -1.0816    0.1313 C   0  0  0  0  0  0  0  0  0  0  0  0
   -2.6356    1.0817    0.1316 C   0  0  0  0  0  0  0  0  0  0  0  0
    4.5030   -0.0788    1.2267 C   0  0  0  0  0  0  0  0  0  0  0  0
   -4.8792    0.6956   -0.5831 C   0  0  0  0  0  0  0  0  0  0  0  0
    5.9136   -0.2420    0.6942 C   0  0  0  0  0  0  0  0  0  0  0  0
   -5.4136    0.8756    0.8247 C   0  0  0  0  0  0  0  0  0  0  0  0
    0.3104   -2.4619    0.1314 H   0  0  0  0  0  0  0  0  0  0  0  0
   -1.9332   -1.5543    0.1317 H   0  0  0  0  0  0  0  0  0  0  0  0
    1.9330    1.5547    0.1300 H   0  0  0  0  0  0  0  0  0  0  0  0
   -0.3105    2.4624    0.1308 H   0  0  0  0  0  0  0  0  0  0  0  0
    4.4139    0.8723    1.7626 H   0  0  0  0  0  0  0  0  0  0  0  0
    4.2564   -0.9073    1.9006 H   0  0  0  0  0  0  0  0  0  0  0  0
   -4.9323    1.6439   -1.1286 H   0  0  0  0  0  0  0  0  0  0  0  0
   -5.4630   -0.0686   -1.1087 H   0  0  0  0  0  0  0  0  0  0  0  0
    6.6499   -0.2408    1.5030 H   0  0  0  0  0  0  0  0  0  0  0  0
    6.1569    0.5571   -0.0122 H   0  0  0  0  0  0  0  0  0  0  0  0
   -6.4607    1.1902    0.8097 H   0  0  0  0  0  0  0  0  0  0  0  0
   -4.8262    1.6132    1.3803 H   0  0  0  0  0  0  0  0  0  0  0  0
    5.8064   -2.1878    0.6192 H   0  0  0  0  0  0  0  0  0  0  0  0
   -4.3899   -0.6351    1.5094 H   0  0  0  0  0  0  0  0  0  0  0  0
  1 13  1  0  0  0  0
  1 15  1  0  0  0  0
  2 14  1  0  0  0  0
  2 16  1  0  0  0  0
  3 13  2  0  0  0  0
  4 14  2  0  0  0  0
  5 17  1  0  0  0  0
  5 31  1  0  0  0  0
  6 18  1  0  0  0  0
  6 32  1  0  0  0  0
  7  9  2  0  0  0  0
  7 11  1  0  0  0  0
  7 13  1  0  0  0  0
  8 10  2  0  0  0  0
  8 12  1  0  0  0  0
  8 14  1  0  0  0  0
  9 10  1  0  0  0  0
  9 19  1  0  0  0  0
 10 20  1  0  0  0  0
 11 12  2  0  0  0  0
 11 21  1  0  0  0  0
 12 22  1  0  0  0  0
 15 17  1  0  0  0  0
 15 23  1  0  0  0  0
 15 24  1  0  0  0  0
 16 18  1  0  0  0  0
 16 25  1  0  0  0  0
 16 26  1  0  0  0  0
 17 27  1  0  0  0  0
 17 28  1  0  0  0  0
 18 29  1  0  0  0  0
 18 30  1  0  0  0  0
M  END
>  <PUBCHEM_COMPOUND_CID>
13739

>  <PUBCHEM_CONFORMER_RMSD>
0.8

>  <PUBCHEM_CONFORMER_DIVERSEORDER>
1
57
49
30
42
33
44
14
53
22
19
10
12
45
3
41
11
32
40
15
36
55
29
9
38
4
58
17
37
43
52
24
51
35
20
56
31
39
16
2
21
23
28
34
26
18
25
5
46
47
6
48
8
13
50
7
27
54

>  <PUBCHEM_MMFF94_PARTIAL_CHARGES>
24
1 -0.43
10 -0.15
11 -0.15
12 -0.15
13 0.63
14 0.63
15 0.28
16 0.28
17 0.28
18 0.28
19 0.15
2 -0.43
20 0.15
21 0.15
22 0.15
3 -0.57
31 0.4
32 0.4
4 -0.57
5 -0.68
6 -0.68
7 0.09
8 0.09
9 -0.15

>  <PUBCHEM_EFFECTIVE_ROTOR_COUNT>
8

>  <PUBCHEM_PHARMACOPHORE_FEATURES>
7
1 3 acceptor
1 4 acceptor
1 5 acceptor
1 5 donor
1 6 acceptor
1 6 donor
6 7 8 9 10 11 12 rings

>  <PUBCHEM_HEAVY_ATOM_COUNT>
18

>  <PUBCHEM_ATOM_DEF_STEREO_COUNT>
0

>  <PUBCHEM_ATOM_UDEF_STEREO_COUNT>
0

>  <PUBCHEM_BOND_DEF_STEREO_COUNT>
0

>  <PUBCHEM_BOND_UDEF_STEREO_COUNT>
0

>  <PUBCHEM_ISOTOPIC_ATOM_COUNT>
0

>  <PUBCHEM_COMPONENT_COUNT>
1

>  <PUBCHEM_CACTVS_TAUTO_COUNT>
1

>  <PUBCHEM_CONFORMER_ID>
000035AB00000001

>  <PUBCHEM_MMFF94_ENERGY>
44.2295

>  <PUBCHEM_FEATURE_SELFOVERLAP>
35.523

>  <PUBCHEM_SHAPE_FINGERPRINT>
10968037 39 18410012152543713039
11089746 13 12540695946557521839
11806522 49 18410009918986535353
12236239 1 18410855447243259972
13533116 47 16660916683113605170
13862211 1 18410006628598832378
14251718 22 18411136939420945249
14251732 16 18410855494493175089
14528608 73 18409733958879929100
14787075 74 18409729560226607264
15196674 1 18338516313804112001
17834072 33 18412824698380719020
19489759 90 14418129604479230181
200 152 18412260623910614371
20645477 70 18199752449496498934
21267235 1 18412550889973548114
221490 88 18263928916185329587
23272321 79 18409451383816681488
23402539 116 18335415751807977061
23402655 69 18339074883518801269
23559900 14 18262797501097503721
34797466 226 17203614826284060588
350125 39 18411983563781164433
3545911 37 18410577275887755602
4325135 7 18410855468718096782
4340502 62 16732706042963078794
4463277 17 18412265021635592889
474 4 17676779746965951636
474229 33 18411136935353240571
5104073 3 18266741281369621474
7062679 117 18341894121495265503

>  <PUBCHEM_SHAPE_MULTIPOLES>
335.22
13.61
1.83
0.69
0
0
-0.08
0
-1.87
0
-0.09
0
0
-0.86

>  <PUBCHEM_SHAPE_SELFOVERLAP>
687.263

>  <PUBCHEM_SHAPE_VOLUME>
192.6

>  <PUBCHEM_COORDINATE_TYPE>
2
5
10

$$$$
13739
 OpenBabel11092011363D

 32 32  0  0  0  0  0  0  0  0999 V2000
    2.6843   -2.2870    0.7769 O   0  0  0  0  0  0  0  0  0  0  0  0
   -2.6812    2.2971   -0.4954 O   0  0  0  0  0  0  0  0  0  0  0  0
    3.6183   -0.5333   -0.3854 O   0  0  0  0  0  0  0  0  0  0  0  0
   -3.6208    0.5262    0.6360 O   0  0  0  0  0  0  0  0  0  0  0  0
    4.3166   -4.3053   -0.2404 O   0  0  0  0  0  0  0  0  0  0  0  0
   -2.3626    5.0040    1.9214 O   0  0  0  0  0  0  0  0  0  0  0  0
    1.2904   -0.5293    0.1305 C   0  0  0  0  0  0  0  0  0  0  0  0
   -1.2905    0.5298    0.1314 C   0  0  0  0  0  0  0  0  0  0  0  0
    0.1866   -1.3821    0.1311 C   0  0  0  0  0  0  0  0  0  0  0  0
   -1.1039   -0.8526    0.1315 C   0  0  0  0  0  0  0  0  0  0  0  0
    1.1037    0.8530    0.1304 C   0  0  0  0  0  0  0  0  0  0  0  0
   -0.1867    1.3826    0.1310 C   0  0  0  0  0  0  0  0  0  0  0  0
    2.6356   -1.0816    0.1313 C   0  0  0  0  0  0  0  0  0  0  0  0
   -2.6356    1.0817    0.1316 C   0  0  0  0  0  0  0  0  0  0  0  0
    3.9173   -2.6274    1.4197 C   0  0  0  0  0  0  0  0  0  0  0  0
   -3.1048    3.4158    0.2912 C   0  0  0  0  0  0  0  0  0  0  0  0
    4.8862   -3.1599    0.3816 C   0  0  0  0  0  0  0  0  0  0  0  0
   -1.9375    3.9029    1.1277 C   0  0  0  0  0  0  0  0  0  0  0  0
    0.3104   -2.4619    0.1314 H   0  0  0  0  0  0  0  0  0  0  0  0
   -1.9332   -1.5543    0.1317 H   0  0  0  0  0  0  0  0  0  0  0  0
    1.9330    1.5547    0.1300 H   0  0  0  0  0  0  0  0  0  0  0  0
   -0.3105    2.4624    0.1308 H   0  0  0  0  0  0  0  0  0  0  0  0
    4.3368   -1.7367    1.8998 H   0  0  0  0  0  0  0  0  0  0  0  0
    3.7162   -3.3948    2.1761 H   0  0  0  0  0  0  0  0  0  0  0  0
   -3.4533    4.2172   -0.3692 H   0  0  0  0  0  0  0  0  0  0  0  0
   -3.9223    3.0911    0.9449 H   0  0  0  0  0  0  0  0  0  0  0  0
    5.8429   -3.4390    0.8321 H   0  0  0  0  0  0  0  0  0  0  0  0
    5.0629   -2.4171   -0.4018 H   0  0  0  0  0  0  0  0  0  0  0  0
   -1.1098    4.2310    0.4930 H   0  0  0  0  0  0  0  0  0  0  0  0
   -1.5810    3.1201    1.8045 H   0  0  0  0  0  0  0  0  0  0  0  0
    4.1757   -4.9747    0.4508 H   0  0  0  0  0  0  0  0  0  0  0  0
   -3.1064    4.6991    2.4687 H   0  0  0  0  0  0  0  0  0  0  0  0
  1 13  1  0  0  0  0
  1 15  1  0  0  0  0
  2 14  1  0  0  0  0
  2 16  1  0  0  0  0
  3 13  2  0  0  0  0
  4 14  2  0  0  0  0
  5 17  1  0  0  0  0
  5 31  1  0  0  0  0
  6 18  1  0  0  0  0
  6 32  1  0  0  0  0
  7  9  2  0  0  0  0
  7 11  1  0  0  0  0
  7 13  1  0  0  0  0
  8 10  2  0  0  0  0
  8 12  1  0  0  0  0
  8 14  1  0  0  0  0
  9 10  1  0  0  0  0
  9 19  1  0  0  0  0
 10 20  1  0  0  0  0
 11 12  2  0  0  0  0
 11 21  1  0  0  0  0
 12 22  1  0  0  0  0
 15 17  1  0  0  0  0
 15 23  1  0  0  0  0
 15 24  1  0  0  0  0
 16 18  1  0  0  0  0
 16 25  1  0  0  0  0
 16 26  1  0  0  0  0
 17 27  1  0  0  0  0
 17 28  1  0  0  0  0
 18 29  1  0  0  0  0
 18 30  1  0  0  0  0
M  END
>  <PUBCHEM_COMPOUND_CID>
13739

>  <PUBCHEM_CONFORMER_RMSD>
0.8

>  <PUBCHEM_CONFORMER_DIVERSEORDER>
1
57
49
30
42
33
44
14
53
22
19
10
12
45
3
41
11
32
40
15
36
55
29
9
38
4
58
17
37
43
52
24
51
35
20
56
31
39
16
2
21
23
28
34
26
18
25
5
46
47
6
48
8
13
50
7
27
54

>  <PUBCHEM_MMFF94_PARTIAL_CHARGES>
24
1 -0.43
10 -0.15
11 -0.15
12 -0.15
13 0.63
14 0.63
15 0.28
16 0.28
17 0.28
18 0.28
19 0.15
2 -0.43
20 0.15
21 0.15
22 0.15
3 -0.57
31 0.4
32 0.4
4 -0.57
5 -0.68
6 -0.68
7 0.09
8 0.09
9 -0.15

>  <PUBCHEM_EFFECTIVE_ROTOR_COUNT>
8

>  <PUBCHEM_PHARMACOPHORE_FEATURES>
7
1 3 acceptor
1 4 acceptor
1 5 acceptor
1 5 donor
1 6 acceptor
1 6 donor
6 7 8 9 10 11 12 rings

>  <PUBCHEM_HEAVY_ATOM_COUNT>
18

>  <PUBCHEM_ATOM_DEF_STEREO_COUNT>
0

>  <PUBCHEM_ATOM_UDEF_STEREO_COUNT>
0

>  <PUBCHEM_BOND_DEF_STEREO_COUNT>
0

>  <PUBCHEM_BOND_UDEF_STEREO_COUNT>
0

>  <PUBCHEM_ISOTOPIC_ATOM_COUNT>
0

>  <PUBCHEM_COMPONENT_COUNT>
1

>  <PUBCHEM_CACTVS_TAUTO_COUNT>
1

>  <PUBCHEM_CONFORMER_ID>
000035AB00000001

>  <PUBCHEM_MMFF94_ENERGY>
44.2295

>  <PUBCHEM_FEATURE_SELFOVERLAP>
35.523

>  <PUBCHEM_SHAPE_FINGERPRINT>
10968037 39 18410012152543713039
11089746 13 12540695946557521839
11806522 49 18410009918986535353
12236239 1 18410855447243259972
13533116 47 16660916683113605170
13862211 1 18410006628598832378
14251718 22 18411136939420945249
14251732 16 18410855494493175089
14528608 73 18409733958879929100
14787075 74 18409729560226607264
15196674 1 18338516313804112001
17834072 33 18412824698380719020
19489759 90 14418129604479230181
200 152 18412260623910614371
20645477 70 18199752449496498934
21267235 1 18412550889973548114
221490 88 18263928916185329587
23272321 79 18409451383816681488
23402539 116 18335415751807977061
23402655 69 18339074883518801269
23559900 14 18262797501097503721
34797466 226 17203614826284060588
350125 39 18411983563781164433
3545911 37 18410577275887755602
4325135 7 18410855468718096782
4340502 62 16732706042963078794
4463277 17 18412265021635592889
474 4 17676779746965951636
474229 33 18411136935353240571
5104073 3 18266741281369621474
7062679 117 18341894121495265503

>  <PUBCHEM_SHAPE_MULTIPOLES>
335.22
13.61
1.83
0.69
0
0
-0.08
0
-1.87
0
-0.09
0
0
-0.86

>  <PUBCHEM_SHAPE_SELFOVERLAP>
687.263

>  <PUBCHEM_SHAPE_VOLUME>
192.6

>  <PUBCHEM_COORDINATE_TYPE>
2
5
10

$$$$
13739
 OpenBabel11092011363D

 32 32  0  0  0  0  0  0  0  0999 V2000
    3.5213   -0.2484    0.7586 O   0  0  0  0  0  0  0  0  0  0  0  0
   -2.6812    2.2971   -0.4954 O   0  0  0  0  0  0  0  0  0  0  0  0
    2.9466   -2.1692   -0.3723 O   0  0  0  0  0  0  0  0  0  0  0  0
   -3.6208    0.5262    0.6360 O   0  0  0  0  0  0  0  0  0  0  0  0
    5.3562    0.3975   -1.2581 O   0  0  0  0  0  0  0  0  0  0  0  0
   -1.7817    1.6634   -3.0571 O   0  0  0  0  0  0  0  0  0  0  0  0
    1.2904   -0.5293    0.1305 C   0  0  0  0  0  0  0  0  0  0  0  0
   -1.2905    0.5298    0.1314 C   0  0  0  0  0  0  0  0  0  0  0  0
    0.1866   -1.3821    0.1311 C   0  0  0  0  0  0  0  0  0  0  0  0
   -1.1039   -0.8526    0.1315 C   0  0  0  0  0  0  0  0  0  0  0  0
    1.1037    0.8530    0.1304 C   0  0  0  0  0  0  0  0  0  0  0  0
   -0.1867    1.3826    0.1310 C   0  0  0  0  0  0  0  0  0  0  0  0
    2.6356   -1.0816    0.1313 C   0  0  0  0  0  0  0  0  0  0  0  0
   -2.6356    1.0817    0.1316 C   0  0  0  0  0  0  0  0  0  0  0  0
    4.8835   -0.6837    0.8249 C   0  0  0  0  0  0  0  0  0  0  0  0
   -3.5508    2.4095   -1.6271 C   0  0  0  0  0  0  0  0  0  0  0  0
    5.4179   -0.8537   -0.5842 C   0  0  0  0  0  0  0  0  0  0  0  0
   -3.1276    1.4017   -2.6783 C   0  0  0  0  0  0  0  0  0  0  0  0
    0.3104   -2.4619    0.1314 H   0  0  0  0  0  0  0  0  0  0  0  0
   -1.9332   -1.5543    0.1317 H   0  0  0  0  0  0  0  0  0  0  0  0
    1.9330    1.5547    0.1300 H   0  0  0  0  0  0  0  0  0  0  0  0
   -0.3105    2.4624    0.1308 H   0  0  0  0  0  0  0  0  0  0  0  0
    5.4791    0.0618    1.3627 H   0  0  0  0  0  0  0  0  0  0  0  0
    4.9184   -1.6401    1.3590 H   0  0  0  0  0  0  0  0  0  0  0  0
   -4.5833    2.2166   -1.3166 H   0  0  0  0  0  0  0  0  0  0  0  0
   -3.4676    3.4254   -2.0296 H   0  0  0  0  0  0  0  0  0  0  0  0
    4.8369   -1.5896   -1.1472 H   0  0  0  0  0  0  0  0  0  0  0  0
    6.4669   -1.1636   -0.5669 H   0  0  0  0  0  0  0  0  0  0  0  0
   -3.7592    1.4739   -3.5679 H   0  0  0  0  0  0  0  0  0  0  0  0
   -3.1732    0.3799   -2.2889 H   0  0  0  0  0  0  0  0  0  0  0  0
    4.4223    0.6666   -1.2917 H   0  0  0  0  0  0  0  0  0  0  0  0
   -1.2367    1.6088   -2.2535 H   0  0  0  0  0  0  0  0  0  0  0  0
  1 13  1  0  0  0  0
  1 15  1  0  0  0  0
  2 14  1  0  0  0  0
  2 16  1  0  0  0  0
  3 13  2  0  0  0  0
  4 14  2  0  0  0  0
  5 17  1  0  0  0  0
  5 31  1  0  0  0  0
  6 18  1  0  0  0  0
  6 32  1  0  0  0  0
  7  9  2  0  0  0  0
  7 11  1  0  0  0  0
  7 13  1  0  0  0  0
  8 10  2  0  0  0  0
  8 12  1  0  0  0  0
  8 14  1  0  0  0  0
  9 10  1  0  0  0  0
  9 19  1  0  0  0  0
 10 20  1  0  0  0  0
 11 12  2  0  0  0  0
 11 21  1  0  0  0  0
 12 22  1  0  0  0  0
 15 17  1  0  0  0  0
 15 23  1  0  0  0  0
 15 24  1  0  0  0  0
 16 18  1  0  0  0  0
 16 25  1  0  0  0  0
 16 26  1  0  0  0  0
 17 27  1  0  0  0  0
 17 28  1  0  0  0  0
 18 29  1  0  0  0  0
 18 30  1  0  0  0  0
M  END
>  <PUBCHEM_COMPOUND_CID>
13739

>  <PUBCHEM_CONFORMER_RMSD>
0.8

>  <PUBCHEM_CONFORMER_DIVERSEORDER>
1
57
49
30
42
33
44
14
53
22
19
10
12
45
3
41
11
32
40
15
36
55
29
9
38
4
58
17
37
43
52
24
51
35
20
56
31
39
16
2
21
23
28
34
26
18
25
5
46
47
6
48
8
13
50
7
27
54

>  <PUBCHEM_MMFF94_PARTIAL_CHARGES>
24
1 -0.43
10 -0.15
11 -0.15
12 -0.15
13 0.63
14 0.63
15 0.28
16 0.28
17 0.28
18 0.28
19 0.15
2 -0.43
20 0.15
21 0.15
22 0.15
3 -0.57
31 0.4
32 0.4
4 -0.57
5 -0.68
6 -0.68
7 0.09
8 0.09
9 -0.15

>  <PUBCHEM_EFFECTIVE_ROTOR_COUNT>
8

>  <PUBCHEM_PHARMACOPHORE_FEATURES>
7
1 3 acceptor
1 4 acceptor
1 5 acceptor
1 5 donor
1 6 acceptor
1 6 donor
6 7 8 9 10 11 12 rings

>  <PUBCHEM_HEAVY_ATOM_COUNT>
18

>  <PUBCHEM_ATOM_DEF_STEREO_COUNT>
0

>  <PUBCHEM_ATOM_UDEF_STEREO_COUNT>
0

>  <PUBCHEM_BOND_DEF_STEREO_COUNT>
0

>  <PUBCHEM_BOND_UDEF_STEREO_COUNT>
0

>  <PUBCHEM_ISOTOPIC_ATOM_COUNT>
0

>  <PUBCHEM_COMPONENT_COUNT>
1

>  <PUBCHEM_CACTVS_TAUTO_COUNT>
1

>  <PUBCHEM_CONFORMER_ID>
000035AB00000001

>  <PUBCHEM_MMFF94_ENERGY>
44.2295

>  <PUBCHEM_FEATURE_SELFOVERLAP>
35.523

>  <PUBCHEM_SHAPE_FINGERPRINT>
10968037 39 18410012152543713039
11089746 13 12540695946557521839
11806522 49 18410009918986535353
12236239 1 18410855447243259972
13533116 47 16660916683113605170
13862211 1 18410006628598832378
14251718 22 18411136939420945249
14251732 16 18410855494493175089
14528608 73 18409733958879929100
14787075 74 18409729560226607264
15196674 1 18338516313804112001
17834072 33 18412824698380719020
19489759 90 14418129604479230181
200 152 18412260623910614371
20645477 70 18199752449496498934
21267235 1 18412550889973548114
221490 88 18263928916185329587
23272321 79 18409451383816681488
23402539 116 18335415751807977061
23402655 69 18339074883518801269
23559900 14 18262797501097503721
34797466 226 17203614826284060588
350125 39 18411983563781164433
3545911 37 18410577275887755602
4325135 7 18410855468718096782
4340502 62 16732706042963078794
4463277 17 18412265021635592889
474 4 17676779746965951636
474229 33 18411136935353240571
5104073 3 18266741281369621474
7062679 117 18341894121495265503

>  <PUBCHEM_SHAPE_MULTIPOLES>
335.22
13.61
1.83
0.69
0
0
-0.08
0
-1.87
0
-0.09
0
0
-0.86

>  <PUBCHEM_SHAPE_SELFOVERLAP>
687.263

>  <PUBCHEM_SHAPE_VOLUME>
192.6

>  <PUBCHEM_COORDINATE_TYPE>
2
5
10

$$$$
13739
 OpenBabel11092011363D

 32 32  0  0  0  0  0  0  0  0999 V2000
    2.6843   -2.2870    0.7769 O   0  0  0  0  0  0  0  0  0  0  0  0
   -2.6812    2.2971   -0.4954 O   0  0  0  0  0  0  0  0  0  0  0  0
    3.6183   -0.5333   -0.3854 O   0  0  0  0  0  0  0  0  0  0  0  0
   -3.6208    0.5262    0.6360 O   0  0  0  0  0  0  0  0  0  0  0  0
    1.9520   -4.5956   -0.6040 O   0  0  0  0  0  0  0  0  0  0  0  0
   -5.9889    3.7988   -0.2221 O   0  0  0  0  0  0  0  0  0  0  0  0
    1.2904   -0.5293    0.1305 C   0  0  0  0  0  0  0  0  0  0  0  0
   -1.2905    0.5298    0.1314 C   0  0  0  0  0  0  0  0  0  0  0  0
    0.1866   -1.3821    0.1311 C   0  0  0  0  0  0  0  0  0  0  0  0
   -1.1039   -0.8526    0.1315 C   0  0  0  0  0  0  0  0  0  0  0  0
    1.1037    0.8530    0.1304 C   0  0  0  0  0  0  0  0  0  0  0  0
   -0.1867    1.3826    0.1310 C   0  0  0  0  0  0  0  0  0  0  0  0
    2.6356   -1.0816    0.1313 C   0  0  0  0  0  0  0  0  0  0  0  0
   -2.6356    1.0817    0.1316 C   0  0  0  0  0  0  0  0  0  0  0  0
    3.6740   -3.2203    0.3311 C   0  0  0  0  0  0  0  0  0  0  0  0
   -3.6721    3.2242   -0.0390 C   0  0  0  0  0  0  0  0  0  0  0  0
    3.1665   -3.9231   -0.9134 C   0  0  0  0  0  0  0  0  0  0  0  0
   -5.0077    2.8679   -0.6626 C   0  0  0  0  0  0  0  0  0  0  0  0
    0.3104   -2.4619    0.1314 H   0  0  0  0  0  0  0  0  0  0  0  0
   -1.9332   -1.5543    0.1317 H   0  0  0  0  0  0  0  0  0  0  0  0
    1.9330    1.5547    0.1300 H   0  0  0  0  0  0  0  0  0  0  0  0
   -0.3105    2.4624    0.1308 H   0  0  0  0  0  0  0  0  0  0  0  0
    4.6037   -2.6868    0.1058 H   0  0  0  0  0  0  0  0  0  0  0  0
    3.8507   -3.9496    1.1300 H   0  0  0  0  0  0  0  0  0  0  0  0
   -3.7433    3.1766    1.0530 H   0  0  0  0  0  0  0  0  0  0  0  0
   -3.3732    4.2322   -0.3482 H   0  0  0  0  0  0  0  0  0  0  0  0
    3.8917   -4.6522   -1.2857 H   0  0  0  0  0  0  0  0  0  0  0  0
    2.9471   -3.2006   -1.7050 H   0  0  0  0  0  0  0  0  0  0  0  0
   -5.3236    1.8639   -0.3665 H   0  0  0  0  0  0  0  0  0  0  0  0
   -4.9620    2.9212   -1.7548 H   0  0  0  0  0  0  0  0  0  0  0  0
    2.1479   -5.2518    0.0865 H   0  0  0  0  0  0  0  0  0  0  0  0
   -5.6861    4.6860   -0.4810 H   0  0  0  0  0  0  0  0  0  0  0  0
  1 13  1  0  0  0  0
  1 15  1  0  0  0  0
  2 14  1  0  0  0  0
  2 16  1  0  0  0  0
  3 13  2  0  0  0  0
  4 14  2  0  0  0  0
  5 17  1  0  0  0  0
  5 31  1  0  0  0  0
  6 18  1  0  0  0  0
  6 32  1  0  0  0  0
  7  9  2  0  0  0  0
  7 11  1  0  0  0  0
  7 13  1  0  0  0  0
  8 10  2  0  0  0  0
  8 12  1  0  0  0  0
  8 14  1  0  0  0  0
  9 10  1  0  0  0  0
  9 19  1  0  0  0  0
 10 20  1  0  0  0  0
 11 12  2  0  0  0  0
 11 21  1  0  0  0  0
 12 22  1  0  0  0  0
 15 17  1  0  0  0  0
 15 23  1  0  0  0  0
 15 24  1  0  0  0  0
 16 18  1  0  0  0  0
 16 25  1  0  0  0  0
 16 26  1  0  0  0  0
 17 27  1  0  0  0  0
 17 28  1  0  0  0  0
 18 29  1  0  0  0  0
 18 30  1  0  0  0  0
M  END
>  <PUBCHEM_COMPOUND_CID>
13739

>  <PUBCHEM_CONFORMER_RMSD>
0.8

>  <PUBCHEM_CONFORMER_DIVERSEORDER>
1
57
49
30
42
33
44
14
53
22
19
10
12
45
3
41
11
32
40
15
36
55
29
9
38
4
58
17
37
43
52
24
51
35
20
56
31
39
16
2
21
23
28
34
26
18
25
5
46
47
6
48
8
13
50
7
27
54

>  <PUBCHEM_MMFF94_PARTIAL_CHARGES>
24
1 -0.43
10 -0.15
11 -0.15
12 -0.15
13 0.63
14 0.63
15 0.28
16 0.28
17 0.28
18 0.28
19 0.15
2 -0.43
20 0.15
21 0.15
22 0.15
3 -0.57
31 0.4
32 0.4
4 -0.57
5 -0.68
6 -0.68
7 0.09
8 0.09
9 -0.15

>  <PUBCHEM_EFFECTIVE_ROTOR_COUNT>
8

>  <PUBCHEM_PHARMACOPHORE_FEATURES>
7
1 3 acceptor
1 4 acceptor
1 5 acceptor
1 5 donor
1 6 acceptor
1 6 donor
6 7 8 9 10 11 12 rings

>  <PUBCHEM_HEAVY_ATOM_COUNT>
18

>  <PUBCHEM_ATOM_DEF_STEREO_COUNT>
0

>  <PUBCHEM_ATOM_UDEF_STEREO_COUNT>
0

>  <PUBCHEM_BOND_DEF_STEREO_COUNT>
0

>  <PUBCHEM_BOND_UDEF_STEREO_COUNT>
0

>  <PUBCHEM_ISOTOPIC_ATOM_COUNT>
0

>  <PUBCHEM_COMPONENT_COUNT>
1

>  <PUBCHEM_CACTVS_TAUTO_COUNT>
1

>  <PUBCHEM_CONFORMER_ID>
000035AB00000001

>  <PUBCHEM_MMFF94_ENERGY>
44.2295

>  <PUBCHEM_FEATURE_SELFOVERLAP>
35.523

>  <PUBCHEM_SHAPE_FINGERPRINT>
10968037 39 18410012152543713039
11089746 13 12540695946557521839
11806522 49 18410009918986535353
12236239 1 18410855447243259972
13533116 47 16660916683113605170
13862211 1 18410006628598832378
14251718 22 18411136939420945249
14251732 16 18410855494493175089
14528608 73 18409733958879929100
14787075 74 18409729560226607264
15196674 1 18338516313804112001
17834072 33 18412824698380719020
19489759 90 14418129604479230181
200 152 18412260623910614371
20645477 70 18199752449496498934
21267235 1 18412550889973548114
221490 88 18263928916185329587
23272321 79 18409451383816681488
23402539 116 18335415751807977061
23402655 69 18339074883518801269
23559900 14 18262797501097503721
34797466 226 17203614826284060588
350125 39 18411983563781164433
3545911 37 18410577275887755602
4325135 7 18410855468718096782
4340502 62 16732706042963078794
4463277 17 18412265021635592889
474 4 17676779746965951636
474229 33 18411136935353240571
5104073 3 18266741281369621474
7062679 117 18341894121495265503

>  <PUBCHEM_SHAPE_MULTIPOLES>
335.22
13.61
1.83
0.69
0
0
-0.08
0
-1.87
0
-0.09
0
0
-0.86

>  <PUBCHEM_SHAPE_SELFOVERLAP>
687.263

>  <PUBCHEM_SHAPE_VOLUME>
192.6

>  <PUBCHEM_COORDINATE_TYPE>
2
5
10

$$$$
13739
 OpenBabel11092011363D

 32 32  0  0  0  0  0  0  0  0999 V2000
    2.6843   -2.2870    0.7769 O   0  0  0  0  0  0  0  0  0  0  0  0
   -2.6812    2.2971   -0.4954 O   0  0  0  0  0  0  0  0  0  0  0  0
    3.6183   -0.5333   -0.3854 O   0  0  0  0  0  0  0  0  0  0  0  0
   -3.6208    0.5262    0.6360 O   0  0  0  0  0  0  0  0  0  0  0  0
    1.9520   -4.5956   -0.6040 O   0  0  0  0  0  0  0  0  0  0  0  0
   -1.6475    2.5327   -3.0739 O   0  0  0  0  0  0  0  0  0  0  0  0
    1.2904   -0.5293    0.1305 C   0  0  0  0  0  0  0  0  0  0  0  0
   -1.2905    0.5298    0.1314 C   0  0  0  0  0  0  0  0  0  0  0  0
    0.1866   -1.3821    0.1311 C   0  0  0  0  0  0  0  0  0  0  0  0
   -1.1039   -0.8526    0.1315 C   0  0  0  0  0  0  0  0  0  0  0  0
    1.1037    0.8530    0.1304 C   0  0  0  0  0  0  0  0  0  0  0  0
   -0.1867    1.3826    0.1310 C   0  0  0  0  0  0  0  0  0  0  0  0
    2.6356   -1.0816    0.1313 C   0  0  0  0  0  0  0  0  0  0  0  0
   -2.6356    1.0817    0.1316 C   0  0  0  0  0  0  0  0  0  0  0  0
    3.6740   -3.2203    0.3311 C   0  0  0  0  0  0  0  0  0  0  0  0
   -3.5508    2.4095   -1.6271 C   0  0  0  0  0  0  0  0  0  0  0  0
    3.1665   -3.9231   -0.9134 C   0  0  0  0  0  0  0  0  0  0  0  0
   -2.8589    1.8239   -2.8429 C   0  0  0  0  0  0  0  0  0  0  0  0
    0.3104   -2.4619    0.1314 H   0  0  0  0  0  0  0  0  0  0  0  0
   -1.9332   -1.5543    0.1317 H   0  0  0  0  0  0  0  0  0  0  0  0
    1.9330    1.5547    0.1300 H   0  0  0  0  0  0  0  0  0  0  0  0
   -0.3105    2.4624    0.1308 H   0  0  0  0  0  0  0  0  0  0  0  0
    4.6037   -2.6868    0.1058 H   0  0  0  0  0  0  0  0  0  0  0  0
    3.8507   -3.9496    1.1300 H   0  0  0  0  0  0  0  0  0  0  0  0
   -4.4823    1.8685   -1.4288 H   0  0  0  0  0  0  0  0  0  0  0  0
   -3.7661    3.4708   -1.7957 H   0  0  0  0  0  0  0  0  0  0  0  0
    3.8917   -4.6522   -1.2857 H   0  0  0  0  0  0  0  0  0  0  0  0
    2.9471   -3.2006   -1.7050 H   0  0  0  0  0  0  0  0  0  0  0  0
   -3.4881    1.9118   -3.7328 H   0  0  0  0  0  0  0  0  0  0  0  0
   -2.6059    0.7707   -2.6860 H   0  0  0  0  0  0  0  0  0  0  0  0
    2.1479   -5.2518    0.0865 H   0  0  0  0  0  0  0  0  0  0  0  0
   -1.1066    2.4559   -2.2693 H   0  0  0  0  0  0  0  0  0  0  0  0
  1 13  1  0  0  0  0
  1 15  1  0  0  0  0
  2 14  1  0  0  0  0
  2 16  1  0  0  0  0
  3 13  2  0  0  0  0
  4 14  2  0  0  0  0
  5 17  1  0  0  0  0
  5 31  1  0  0  0  0
  6 18  1  0  0  0  0
  6 32  1  0  0  0  0
  7  9  2  0  0  0  0
  7 11  1  0  0  0  0
  7 13  1  0  0  0  0
  8 10  2  0  0  0  0
  8 12  1  0  0  0  0
  8 14  1  0  0  0  0
  9 10  1  0  0  0  0
  9 19  1  0  0  0  0
 10 20  1  0  0  0  0
 11 12  2  0  0  0  0
 11 21  1  0  0  0  0
 12 22  1  0  0  0  0
 15 17  1  0  0  0  0
 15 23  1  0  0  0  0
 15 24  1  0  0  0  0
 16 18  1  0  0  0  0
 16 25  1  0  0  0  0
 16 26  1  0  0  0  0
 17 27  1  0  0  0  0
 17 28  1  0  0  0  0
 18 29  1  0  0  0  0
 18 30  1  0  0  0  0
M  END
>  <PUBCHEM_COMPOUND_CID>
13739

>  <PUBCHEM_CONFORMER_RMSD>
0.8

>  <PUBCHEM_CONFORMER_DIVERSEORDER>
1
57
49
30
42
33
44
14
53
22
19
10
12
45
3
41
11
32
40
15
36
55
29
9
38
4
58
17
37
43
52
24
51
35
20
56
31
39
16
2
21
23
28
34
26
18
25
5
46
47
6
48
8
13
50
7
27
54

>  <PUBCHEM_MMFF94_PARTIAL_CHARGES>
24
1 -0.43
10 -0.15
11 -0.15
12 -0.15
13 0.63
14 0.63
15 0.28
16 0.28
17 0.28
18 0.28
19 0.15
2 -0.43
20 0.15
21 0.15
22 0.15
3 -0.57
31 0.4
32 0.4
4 -0.57
5 -0.68
6 -0.68
7 0.09
8 0.09
9 -0.15

>  <PUBCHEM_EFFECTIVE_ROTOR_COUNT>
8

>  <PUBCHEM_PHARMACOPHORE_FEATURES>
7
1 3 acceptor
1 4 acceptor
1 5 acceptor
1 5 donor
1 6 acceptor
1 6 donor
6 7 8 9 10 11 12 rings

>  <PUBCHEM_HEAVY_ATOM_COUNT>
18

>  <PUBCHEM_ATOM_DEF_STEREO_COUNT>
0

>  <PUBCHEM_ATOM_UDEF_STEREO_COUNT>
0

>  <PUBCHEM_BOND_DEF_STEREO_COUNT>
0

>  <PUBCHEM_BOND_UDEF_STEREO_COUNT>
0

>  <PUBCHEM_ISOTOPIC_ATOM_COUNT>
0

>  <PUBCHEM_COMPONENT_COUNT>
1

>  <PUBCHEM_CACTVS_TAUTO_COUNT>
1

>  <PUBCHEM_CONFORMER_ID>
000035AB00000001

>  <PUBCHEM_MMFF94_ENERGY>
44.2295

>  <PUBCHEM_FEATURE_SELFOVERLAP>
35.523

>  <PUBCHEM_SHAPE_FINGERPRINT>
10968037 39 18410012152543713039
11089746 13 12540695946557521839
11806522 49 18410009918986535353
12236239 1 18410855447243259972
13533116 47 16660916683113605170
13862211 1 18410006628598832378
14251718 22 18411136939420945249
14251732 16 18410855494493175089
14528608 73 18409733958879929100
14787075 74 18409729560226607264
15196674 1 18338516313804112001
17834072 33 18412824698380719020
19489759 90 14418129604479230181
200 152 18412260623910614371
20645477 70 18199752449496498934
21267235 1 18412550889973548114
221490 88 18263928916185329587
23272321 79 18409451383816681488
23402539 116 18335415751807977061
23402655 69 18339074883518801269
23559900 14 18262797501097503721
34797466 226 17203614826284060588
350125 39 18411983563781164433
3545911 37 18410577275887755602
4325135 7 18410855468718096782
4340502 62 16732706042963078794
4463277 17 18412265021635592889
474 4 17676779746965951636
474229 33 18411136935353240571
5104073 3 18266741281369621474
7062679 117 18341894121495265503

>  <PUBCHEM_SHAPE_MULTIPOLES>
335.22
13.61
1.83
0.69
0
0
-0.08
0
-1.87
0
-0.09
0
0
-0.86

>  <PUBCHEM_SHAPE_SELFOVERLAP>
687.263

>  <PUBCHEM_SHAPE_VOLUME>
192.6

>  <PUBCHEM_COORDINATE_TYPE>
2
5
10

$$$$
13739
 OpenBabel11092011363D

 32 32  0  0  0  0  0  0  0  0999 V2000
    3.5213   -0.2484    0.7586 O   0  0  0  0  0  0  0  0  0  0  0  0
   -2.6184    2.4500    0.1343 O   0  0  0  0  0  0  0  0  0  0  0  0
    2.9466   -2.1692   -0.3723 O   0  0  0  0  0  0  0  0  0  0  0  0
   -3.6715    0.4029    0.1307 O   0  0  0  0  0  0  0  0  0  0  0  0
    5.9191   -0.6440   -0.6079 O   0  0  0  0  0  0  0  0  0  0  0  0
   -5.7020    3.7722    1.5532 O   0  0  0  0  0  0  0  0  0  0  0  0
    1.2904   -0.5293    0.1305 C   0  0  0  0  0  0  0  0  0  0  0  0
   -1.2905    0.5298    0.1314 C   0  0  0  0  0  0  0  0  0  0  0  0
    0.1866   -1.3821    0.1311 C   0  0  0  0  0  0  0  0  0  0  0  0
   -1.1039   -0.8526    0.1315 C   0  0  0  0  0  0  0  0  0  0  0  0
    1.1037    0.8530    0.1304 C   0  0  0  0  0  0  0  0  0  0  0  0
   -0.1867    1.3826    0.1310 C   0  0  0  0  0  0  0  0  0  0  0  0
    2.6356   -1.0816    0.1313 C   0  0  0  0  0  0  0  0  0  0  0  0
   -2.6356    1.0817    0.1316 C   0  0  0  0  0  0  0  0  0  0  0  0
    4.6413   -0.8628    1.4047 C   0  0  0  0  0  0  0  0  0  0  0  0
   -3.8871    3.1133    0.1379 C   0  0  0  0  0  0  0  0  0  0  0  0
    5.9208   -0.3389    0.7814 C   0  0  0  0  0  0  0  0  0  0  0  0
   -4.4340    3.1277    1.5523 C   0  0  0  0  0  0  0  0  0  0  0  0
    0.3104   -2.4619    0.1314 H   0  0  0  0  0  0  0  0  0  0  0  0
   -1.9332   -1.5543    0.1317 H   0  0  0  0  0  0  0  0  0  0  0  0
    1.9330    1.5547    0.1300 H   0  0  0  0  0  0  0  0  0  0  0  0
   -0.3105    2.4624    0.1308 H   0  0  0  0  0  0  0  0  0  0  0  0
    4.6219   -0.6245    2.4737 H   0  0  0  0  0  0  0  0  0  0  0  0
    4.5717   -1.9478    1.2666 H   0  0  0  0  0  0  0  0  0  0  0  0
   -3.7657    4.1386   -0.2278 H   0  0  0  0  0  0  0  0  0  0  0  0
   -4.5689    2.5625   -0.5200 H   0  0  0  0  0  0  0  0  0  0  0  0
    6.8047   -0.7884    1.2429 H   0  0  0  0  0  0  0  0  0  0  0  0
    5.9820    0.7492    0.8766 H   0  0  0  0  0  0  0  0  0  0  0  0
   -3.7666    3.6727    2.2255 H   0  0  0  0  0  0  0  0  0  0  0  0
   -4.5746    2.1114    1.9332 H   0  0  0  0  0  0  0  0  0  0  0  0
    5.8838   -1.6119   -0.6954 H   0  0  0  0  0  0  0  0  0  0  0  0
   -6.2779    3.2839    0.9403 H   0  0  0  0  0  0  0  0  0  0  0  0
  1 13  1  0  0  0  0
  1 15  1  0  0  0  0
  2 14  1  0  0  0  0
  2 16  1  0  0  0  0
  3 13  2  0  0  0  0
  4 14  2  0  0  0  0
  5 17  1  0  0  0  0
  5 31  1  0  0  0  0
  6 18  1  0  0  0  0
  6 32  1  0  0  0  0
  7  9  2  0  0  0  0
  7 11  1  0  0  0  0
  7 13  1  0  0  0  0
  8 10  2  0  0  0  0
  8 12  1  0  0  0  0
  8 14  1  0  0  0  0
  9 10  1  0  0  0  0
  9 19  1  0  0  0  0
 10 20  1  0  0  0  0
 11 12  2  0  0  0  0
 11 21  1  0  0  0  0
 12 22  1  0  0  0  0
 15 17  1  0  0  0  0
 15 23  1  0  0  0  0
 15 24  1  0  0  0  0
 16 18  1  0  0  0  0
 16 25  1  0  0  0  0
 16 26  1  0  0  0  0
 17 27  1  0  0  0  0
 17 28  1  0  0  0  0
 18 29  1  0  0  0  0
 18 30  1  0  0  0  0
M  END
>  <PUBCHEM_COMPOUND_CID>
13739

>  <PUBCHEM_CONFORMER_RMSD>
0.8

>  <PUBCHEM_CONFORMER_DIVERSEORDER>
1
57
49
30
42
33
44
14
53
22
19
10
12
45
3
41
11
32
40
15
36
55
29
9
38
4
58
17
37
43
52
24
51
35
20
56
31
39
16
2
21
23
28
34
26
18
25
5
46
47
6
48
8
13
50
7
27
54

>  <PUBCHEM_MMFF94_PARTIAL_CHARGES>
24
1 -0.43
10 -0.15
11 -0.15
12 -0.15
13 0.63
14 0.63
15 0.28
16 0.28
17 0.28
18 0.28
19 0.15
2 -0.43
20 0.15
21 0.15
22 0.15
3 -0.57
31 0.4
32 0.4
4 -0.57
5 -0.68
6 -0.68
7 0.09
8 0.09
9 -0.15

>  <PUBCHEM_EFFECTIVE_ROTOR_COUNT>
8

>  <PUBCHEM_PHARMACOPHORE_FEATURES>
7
1 3 acceptor
1 4 acceptor
1 5 acceptor
1 5 donor
1 6 acceptor
1 6 donor
6 7 8 9 10 11 12 rings

>  <PUBCHEM_HEAVY_ATOM_COUNT>
18

>  <PUBCHEM_ATOM_DEF_STEREO_COUNT>
0

>  <PUBCHEM_ATOM_UDEF_STEREO_COUNT>
0

>  <PUBCHEM_BOND_DEF_STEREO_COUNT>
0

>  <PUBCHEM_BOND_UDEF_STEREO_COUNT>
0

>  <PUBCHEM_ISOTOPIC_ATOM_COUNT>
0

>  <PUBCHEM_COMPONENT_COUNT>
1

>  <PUBCHEM_CACTVS_TAUTO_COUNT>
1

>  <PUBCHEM_CONFORMER_ID>
000035AB00000001

>  <PUBCHEM_MMFF94_ENERGY>
44.2295

>  <PUBCHEM_FEATURE_SELFOVERLAP>
35.523

>  <PUBCHEM_SHAPE_FINGERPRINT>
10968037 39 18410012152543713039
11089746 13 12540695946557521839
11806522 49 18410009918986535353
12236239 1 18410855447243259972
13533116 47 16660916683113605170
13862211 1 18410006628598832378
14251718 22 18411136939420945249
14251732 16 18410855494493175089
14528608 73 18409733958879929100
14787075 74 18409729560226607264
15196674 1 18338516313804112001
17834072 33 18412824698380719020
19489759 90 14418129604479230181
200 152 18412260623910614371
20645477 70 18199752449496498934
21267235 1 18412550889973548114
221490 88 18263928916185329587
23272321 79 18409451383816681488
23402539 116 18335415751807977061
23402655 69 18339074883518801269
23559900 14 18262797501097503721
34797466 226 17203614826284060588
350125 39 18411983563781164433
3545911 37 18410577275887755602
4325135 7 18410855468718096782
4340502 62 16732706042963078794
4463277 17 18412265021635592889
474 4 17676779746965951636
474229 33 18411136935353240571
5104073 3 18266741281369621474
7062679 117 18341894121495265503

>  <PUBCHEM_SHAPE_MULTIPOLES>
335.22
13.61
1.83
0.69
0
0
-0.08
0
-1.87
0
-0.09
0
0
-0.86

>  <PUBCHEM_SHAPE_SELFOVERLAP>
687.263

>  <PUBCHEM_SHAPE_VOLUME>
192.6

>  <PUBCHEM_COORDINATE_TYPE>
2
5
10

$$$$
13739
 OpenBabel11092011363D

 32 32  0  0  0  0  0  0  0  0999 V2000
    3.5213   -0.2484    0.7586 O   0  0  0  0  0  0  0  0  0  0  0  0
   -2.6184    2.4500    0.1343 O   0  0  0  0  0  0  0  0  0  0  0  0
    2.9466   -2.1692   -0.3723 O   0  0  0  0  0  0  0  0  0  0  0  0
   -3.6715    0.4029    0.1307 O   0  0  0  0  0  0  0  0  0  0  0  0
    5.6178    2.2531   -0.8592 O   0  0  0  0  0  0  0  0  0  0  0  0
   -3.9054    3.1182    2.5318 O   0  0  0  0  0  0  0  0  0  0  0  0
    1.2904   -0.5293    0.1305 C   0  0  0  0  0  0  0  0  0  0  0  0
   -1.2905    0.5298    0.1314 C   0  0  0  0  0  0  0  0  0  0  0  0
    0.1866   -1.3821    0.1311 C   0  0  0  0  0  0  0  0  0  0  0  0
   -1.1039   -0.8526    0.1315 C   0  0  0  0  0  0  0  0  0  0  0  0
    1.1037    0.8530    0.1304 C   0  0  0  0  0  0  0  0  0  0  0  0
   -0.1867    1.3826    0.1310 C   0  0  0  0  0  0  0  0  0  0  0  0
    2.6356   -1.0816    0.1313 C   0  0  0  0  0  0  0  0  0  0  0  0
   -2.6356    1.0817    0.1316 C   0  0  0  0  0  0  0  0  0  0  0  0
    4.6110    0.2470   -0.0266 C   0  0  0  0  0  0  0  0  0  0  0  0
   -3.8871    3.1133    0.1379 C   0  0  0  0  0  0  0  0  0  0  0  0
    4.5446    1.7616   -0.0655 C   0  0  0  0  0  0  0  0  0  0  0  0
   -4.6492    2.7169    1.3877 C   0  0  0  0  0  0  0  0  0  0  0  0
    0.3104   -2.4619    0.1314 H   0  0  0  0  0  0  0  0  0  0  0  0
   -1.9332   -1.5543    0.1317 H   0  0  0  0  0  0  0  0  0  0  0  0
    1.9330    1.5547    0.1300 H   0  0  0  0  0  0  0  0  0  0  0  0
   -0.3105    2.4624    0.1308 H   0  0  0  0  0  0  0  0  0  0  0  0
    5.5583   -0.0739    0.4200 H   0  0  0  0  0  0  0  0  0  0  0  0
    4.5238   -0.1601   -1.0405 H   0  0  0  0  0  0  0  0  0  0  0  0
   -3.7338    4.1977    0.1201 H   0  0  0  0  0  0  0  0  0  0  0  0
   -4.4443    2.8021   -0.7531 H   0  0  0  0  0  0  0  0  0  0  0  0
    4.6182    2.1919    0.9373 H   0  0  0  0  0  0  0  0  0  0  0  0
    3.6136    2.0977   -0.5314 H   0  0  0  0  0  0  0  0  0  0  0  0
   -4.7961    1.6343    1.4309 H   0  0  0  0  0  0  0  0  0  0  0  0
   -5.6240    3.2125    1.4313 H   0  0  0  0  0  0  0  0  0  0  0  0
    6.4475    1.9718   -0.4370 H   0  0  0  0  0  0  0  0  0  0  0  0
   -3.7721    4.0796    2.4707 H   0  0  0  0  0  0  0  0  0  0  0  0
  1 13  1  0  0  0  0
  1 15  1  0  0  0  0
  2 14  1  0  0  0  0
  2 16  1  0  0  0  0
  3 13  2  0  0  0  0
  4 14  2  0  0  0  0
  5 17  1  0  0  0  0
  5 31  1  0  0  0  0
  6 18  1  0  0  0  0
  6 32  1  0  0  0  0
  7  9  2  0  0  0  0
  7 11  1  0  0  0  0
  7 13  1  0  0  0  0
  8 10  2  0  0  0  0
  8 12  1  0  0  0  0
  8 14  1  0  0  0  0
  9 10  1  0  0  0  0
  9 19  1  0  0  0  0
 10 20  1  0  0  0  0
 11 12  2  0  0  0  0
 11 21  1  0  0  0  0
 12 22  1  0  0  0  0
 15 17  1  0  0  0  0
 15 23  1  0  0  0  0
 15 24  1  0  0  0  0
 16 18  1  0  0  0  0
 16 25  1  0  0  0  0
 16 26  1  0  0  0  0
 17 27  1  0  0  0  0
 17 28  1  0  0  0  0
 18 29  1  0  0  0  0
 18 30  1  0  0  0  0
M  END
>  <PUBCHEM_COMPOUND_CID>
13739

>  <PUBCHEM_CONFORMER_RMSD>
0.8

>  <PUBCHEM_CONFORMER_DIVERSEORDER>
1
57
49
30
42
33
44
14
53
22
19
10
12
45
3
41
11
32
40
15
36
55
29
9
38
4
58
17
37
43
52
24
51
35
20
56
31
39
16
2
21
23
28
34
26
18
25
5
46
47
6
48
8
13
50
7
27
54

>  <PUBCHEM_MMFF94_PARTIAL_CHARGES>
24
1 -0.43
10 -0.15
11 -0.15
12 -0.15
13 0.63
14 0.63
15 0.28
16 0.28
17 0.28
18 0.28
19 0.15
2 -0.43
20 0.15
21 0.15
22 0.15
3 -0.57
31 0.4
32 0.4
4 -0.57
5 -0.68
6 -0.68
7 0.09
8 0.09
9 -0.15

>  <PUBCHEM_EFFECTIVE_ROTOR_COUNT>
8

>  <PUBCHEM_PHARMACOPHORE_FEATURES>
7
1 3 acceptor
1 4 acceptor
1 5 acceptor
1 5 donor
1 6 acceptor
1 6 donor
6 7 8 9 10 11 12 rings

>  <PUBCHEM_HEAVY_ATOM_COUNT>
18

>  <PUBCHEM_ATOM_DEF_STEREO_COUNT>
0

>  <PUBCHEM_ATOM_UDEF_STEREO_COUNT>
0

>  <PUBCHEM_BOND_DEF_STEREO_COUNT>
0

>  <PUBCHEM_BOND_UDEF_STEREO_COUNT>
0

>  <PUBCHEM_ISOTOPIC_ATOM_COUNT>
0

>  <PUBCHEM_COMPONENT_COUNT>
1

>  <PUBCHEM_CACTVS_TAUTO_COUNT>
1

>  <PUBCHEM_CONFORMER_ID>
000035AB00000001

>  <PUBCHEM_MMFF94_ENERGY>
44.2295

>  <PUBCHEM_FEATURE_SELFOVERLAP>
35.523

>  <PUBCHEM_SHAPE_FINGERPRINT>
10968037 39 18410012152543713039
11089746 13 12540695946557521839
11806522 49 18410009918986535353
12236239 1 18410855447243259972
13533116 47 16660916683113605170
13862211 1 18410006628598832378
14251718 22 18411136939420945249
14251732 16 18410855494493175089
14528608 73 18409733958879929100
14787075 74 18409729560226607264
15196674 1 18338516313804112001
17834072 33 18412824698380719020
19489759 90 14418129604479230181
200 152 18412260623910614371
20645477 70 18199752449496498934
21267235 1 18412550889973548114
221490 88 18263928916185329587
23272321 79 18409451383816681488
23402539 116 18335415751807977061
23402655 69 18339074883518801269
23559900 14 18262797501097503721
34797466 226 17203614826284060588
350125 39 18411983563781164433
3545911 37 18410577275887755602
4325135 7 18410855468718096782
4340502 62 16732706042963078794
4463277 17 18412265021635592889
474 4 17676779746965951636
474229 33 18411136935353240571
5104073 3 18266741281369621474
7062679 117 18341894121495265503

>  <PUBCHEM_SHAPE_MULTIPOLES>
335.22
13.61
1.83
0.69
0
0
-0.08
0
-1.87
0
-0.09
0
0
-0.86

>  <PUBCHEM_SHAPE_SELFOVERLAP>
687.263

>  <PUBCHEM_SHAPE_VOLUME>
192.6

>  <PUBCHEM_COORDINATE_TYPE>
2
5
10

$$$$
13739
 OpenBabel11092011363D

 32 32  0  0  0  0  0  0  0  0999 V2000
    3.5844   -0.0957    0.1288 O   0  0  0  0  0  0  0  0  0  0  0  0
   -3.5178    0.2583   -0.5136 O   0  0  0  0  0  0  0  0  0  0  0  0
    2.8958   -2.2922    0.1329 O   0  0  0  0  0  0  0  0  0  0  0  0
   -2.9494    2.1624    0.6485 O   0  0  0  0  0  0  0  0  0  0  0  0
    2.9858    1.2922    2.4715 O   0  0  0  0  0  0  0  0  0  0  0  0
   -5.3237   -0.3635    1.5173 O   0  0  0  0  0  0  0  0  0  0  0  0
    1.2904   -0.5293    0.1305 C   0  0  0  0  0  0  0  0  0  0  0  0
   -1.2905    0.5298    0.1314 C   0  0  0  0  0  0  0  0  0  0  0  0
    0.1866   -1.3821    0.1311 C   0  0  0  0  0  0  0  0  0  0  0  0
   -1.1039   -0.8526    0.1315 C   0  0  0  0  0  0  0  0  0  0  0  0
    1.1037    0.8530    0.1304 C   0  0  0  0  0  0  0  0  0  0  0  0
   -0.1867    1.3826    0.1310 C   0  0  0  0  0  0  0  0  0  0  0  0
    2.6356   -1.0816    0.1313 C   0  0  0  0  0  0  0  0  0  0  0  0
   -2.6356    1.0817    0.1316 C   0  0  0  0  0  0  0  0  0  0  0  0
    4.5030   -0.0788    1.2267 C   0  0  0  0  0  0  0  0  0  0  0  0
   -4.8792    0.6956   -0.5831 C   0  0  0  0  0  0  0  0  0  0  0  0
    3.7261    0.0785    2.5196 C   0  0  0  0  0  0  0  0  0  0  0  0
   -5.4136    0.8756    0.8247 C   0  0  0  0  0  0  0  0  0  0  0  0
    0.3104   -2.4619    0.1314 H   0  0  0  0  0  0  0  0  0  0  0  0
   -1.9332   -1.5543    0.1317 H   0  0  0  0  0  0  0  0  0  0  0  0
    1.9330    1.5547    0.1300 H   0  0  0  0  0  0  0  0  0  0  0  0
   -0.3105    2.4624    0.1308 H   0  0  0  0  0  0  0  0  0  0  0  0
    5.0694   -1.0162    1.2431 H   0  0  0  0  0  0  0  0  0  0  0  0
    5.1892    0.7655    1.0943 H   0  0  0  0  0  0  0  0  0  0  0  0
   -4.9323    1.6439   -1.1286 H   0  0  0  0  0  0  0  0  0  0  0  0
   -5.4630   -0.0686   -1.1087 H   0  0  0  0  0  0  0  0  0  0  0  0
    4.3919    0.1024    3.3869 H   0  0  0  0  0  0  0  0  0  0  0  0
    3.0077   -0.7373    2.6427 H   0  0  0  0  0  0  0  0  0  0  0  0
   -6.4607    1.1902    0.8097 H   0  0  0  0  0  0  0  0  0  0  0  0
   -4.8262    1.6132    1.3803 H   0  0  0  0  0  0  0  0  0  0  0  0
    3.6233    2.0210    2.3811 H   0  0  0  0  0  0  0  0  0  0  0  0
   -4.3899   -0.6351    1.5094 H   0  0  0  0  0  0  0  0  0  0  0  0
  1 13  1  0  0  0  0
  1 15  1  0  0  0  0
  2 14  1  0  0  0  0
  2 16  1  0  0  0  0
  3 13  2  0  0  0  0
  4 14  2  0  0  0  0
  5 17  1  0  0  0  0
  5 31  1  0  0  0  0
  6 18  1  0  0  0  0
  6 32  1  0  0  0  0
  7  9  2  0  0  0  0
  7 11  1  0  0  0  0
  7 13  1  0  0  0  0
  8 10  2  0  0  0  0
  8 12  1  0  0  0  0
  8 14  1  0  0  0  0
  9 10  1  0  0  0  0
  9 19  1  0  0  0  0
 10 20  1  0  0  0  0
 11 12  2  0  0  0  0
 11 21  1  0  0  0  0
 12 22  1  0  0  0  0
 15 17  1  0  0  0  0
 15 23  1  0  0  0  0
 15 24  1  0  0  0  0
 16 18  1  0  0  0  0
 16 25  1  0  0  0  0
 16 26  1  0  0  0  0
 17 27  1  0  0  0  0
 17 28  1  0  0  0  0
 18 29  1  0  0  0  0
 18 30  1  0  0  0  0
M  END
>  <PUBCHEM_COMPOUND_CID>
13739

>  <PUBCHEM_CONFORMER_RMSD>
0.8

>  <PUBCHEM_CONFORMER_DIVERSEORDER>
1
57
49
30
42
33
44
14
53
22
19
10
12
45
3
41
11
32
40
15
36
55
29
9
38
4
58
17
37
43
52
24
51
35
20
56
31
39
16
2
21
23
28
34
26
18
25
5
46
47
6
48
8
13
50
7
27
54

>  <PUBCHEM_MMFF94_PARTIAL_CHARGES>
24
1 -0.43
10 -0.15
11 -0.15
12 -0.15
13 0.63
14 0.63
15 0.28
16 0.28
17 0.28
18 0.28
19 0.15
2 -0.43
20 0.15
21 0.15
22 0.15
3 -0.57
31 0.4
32 0.4
4 -0.57
5 -0.68
6 -0.68
7 0.09
8 0.09
9 -0.15

>  <PUBCHEM_EFFECTIVE_ROTOR_COUNT>
8

>  <PUBCHEM_PHARMACOPHORE_FEATURES>
7
1 3 acceptor
1 4 acceptor
1 5 acceptor
1 5 donor
1 6 acceptor
1 6 donor
6 7 8 9 10 11 12 rings

>  <PUBCHEM_HEAVY_ATOM_COUNT>
18

>  <PUBCHEM_ATOM_DEF_STEREO_COUNT>
0

>  <PUBCHEM_ATOM_UDEF_STEREO_COUNT>
0

>  <PUBCHEM_BOND_DEF_STEREO_COUNT>
0

>  <PUBCHEM_BOND_UDEF_STEREO_COUNT>
0

>  <PUBCHEM_ISOTOPIC_ATOM_COUNT>
0

>  <PUBCHEM_COMPONENT_COUNT>
1

>  <PUBCHEM_CACTVS_TAUTO_COUNT>
1

>  <PUBCHEM_CONFORMER_ID>
000035AB00000001

>  <PUBCHEM_MMFF94_ENERGY>
44.2295

>  <PUBCHEM_FEATURE_SELFOVERLAP>
35.523

>  <PUBCHEM_SHAPE_FINGERPRINT>
10968037 39 18410012152543713039
11089746 13 12540695946557521839
11806522 49 18410009918986535353
12236239 1 18410855447243259972
13533116 47 16660916683113605170
13862211 1 18410006628598832378
14251718 22 18411136939420945249
14251732 16 18410855494493175089
14528608 73 18409733958879929100
14787075 74 18409729560226607264
15196674 1 18338516313804112001
17834072 33 18412824698380719020
19489759 90 14418129604479230181
200 152 18412260623910614371
20645477 70 18199752449496498934
21267235 1 18412550889973548114
221490 88 18263928916185329587
23272321 79 18409451383816681488
23402539 116 18335415751807977061
23402655 69 18339074883518801269
23559900 14 18262797501097503721
34797466 226 17203614826284060588
350125 39 18411983563781164433
3545911 37 18410577275887755602
4325135 7 18410855468718096782
4340502 62 16732706042963078794
4463277 17 18412265021635592889
474 4 17676779746965951636
474229 33 18411136935353240571
5104073 3 18266741281369621474
7062679 117 18341894121495265503

>  <PUBCHEM_SHAPE_MULTIPOLES>
335.22
13.61
1.83
0.69
0
0
-0.08
0
-1.87
0
-0.09
0
0
-0.86

>  <PUBCHEM_SHAPE_SELFOVERLAP>
687.263

>  <PUBCHEM_SHAPE_VOLUME>
192.6

>  <PUBCHEM_COORDINATE_TYPE>
2
5
10

$$$$
13739
 OpenBabel11092011363D

 32 32  0  0  0  0  0  0  0  0999 V2000
    3.5213   -0.2484    0.7586 O   0  0  0  0  0  0  0  0  0  0  0  0
   -2.6812    2.2971   -0.4954 O   0  0  0  0  0  0  0  0  0  0  0  0
    2.9466   -2.1692   -0.3723 O   0  0  0  0  0  0  0  0  0  0  0  0
   -3.6208    0.5262    0.6360 O   0  0  0  0  0  0  0  0  0  0  0  0
    6.1096    0.6043    1.4099 O   0  0  0  0  0  0  0  0  0  0  0  0
   -5.4461    1.9674   -2.8442 O   0  0  0  0  0  0  0  0  0  0  0  0
    1.2904   -0.5293    0.1305 C   0  0  0  0  0  0  0  0  0  0  0  0
   -1.2905    0.5298    0.1314 C   0  0  0  0  0  0  0  0  0  0  0  0
    0.1866   -1.3821    0.1311 C   0  0  0  0  0  0  0  0  0  0  0  0
   -1.1039   -0.8526    0.1315 C   0  0  0  0  0  0  0  0  0  0  0  0
    1.1037    0.8530    0.1304 C   0  0  0  0  0  0  0  0  0  0  0  0
   -0.1867    1.3826    0.1310 C   0  0  0  0  0  0  0  0  0  0  0  0
    2.6356   -1.0816    0.1313 C   0  0  0  0  0  0  0  0  0  0  0  0
   -2.6356    1.0817    0.1316 C   0  0  0  0  0  0  0  0  0  0  0  0
    4.2156   -0.7778    1.8930 C   0  0  0  0  0  0  0  0  0  0  0  0
   -3.9116    2.6485   -1.1376 C   0  0  0  0  0  0  0  0  0  0  0  0
    5.7071   -0.7436    1.6208 C   0  0  0  0  0  0  0  0  0  0  0  0
   -4.2322    1.6096   -2.1949 C   0  0  0  0  0  0  0  0  0  0  0  0
    0.3104   -2.4619    0.1314 H   0  0  0  0  0  0  0  0  0  0  0  0
   -1.9332   -1.5543    0.1317 H   0  0  0  0  0  0  0  0  0  0  0  0
    1.9330    1.5547    0.1300 H   0  0  0  0  0  0  0  0  0  0  0  0
   -0.3105    2.4624    0.1308 H   0  0  0  0  0  0  0  0  0  0  0  0
    3.9835   -0.1744    2.7773 H   0  0  0  0  0  0  0  0  0  0  0  0
    3.8854   -1.8106    2.0533 H   0  0  0  0  0  0  0  0  0  0  0  0
   -4.7150    2.6875   -0.3942 H   0  0  0  0  0  0  0  0  0  0  0  0
   -3.7905    3.6320   -1.6057 H   0  0  0  0  0  0  0  0  0  0  0  0
    5.9670   -1.3344    0.7378 H   0  0  0  0  0  0  0  0  0  0  0  0
    6.2677   -1.1208    2.4812 H   0  0  0  0  0  0  0  0  0  0  0  0
   -4.3561    0.6197   -1.7474 H   0  0  0  0  0  0  0  0  0  0  0  0
   -3.4467    1.5628   -2.9555 H   0  0  0  0  0  0  0  0  0  0  0  0
    5.6268    0.9364    0.6338 H   0  0  0  0  0  0  0  0  0  0  0  0
   -5.3233    2.8542   -3.2241 H   0  0  0  0  0  0  0  0  0  0  0  0
  1 13  1  0  0  0  0
  1 15  1  0  0  0  0
  2 14  1  0  0  0  0
  2 16  1  0  0  0  0
  3 13  2  0  0  0  0
  4 14  2  0  0  0  0
  5 17  1  0  0  0  0
  5 31  1  0  0  0  0
  6 18  1  0  0  0  0
  6 32  1  0  0  0  0
  7  9  2  0  0  0  0
  7 11  1  0  0  0  0
  7 13  1  0  0  0  0
  8 10  2  0  0  0  0
  8 12  1  0  0  0  0
  8 14  1  0  0  0  0
  9 10  1  0  0  0  0
  9 19  1  0  0  0  0
 10 20  1  0  0  0  0
 11 12  2  0  0  0  0
 11 21  1  0  0  0  0
 12 22  1  0  0  0  0
 15 17  1  0  0  0  0
 15 23  1  0  0  0  0
 15 24  1  0  0  0  0
 16 18  1  0  0  0  0
 16 25  1  0  0  0  0
 16 26  1  0  0  0  0
 17 27  1  0  0  0  0
 17 28  1  0  0  0  0
 18 29  1  0  0  0  0
 18 30  1  0  0  0  0
M  END
>  <PUBCHEM_COMPOUND_CID>
13739

>  <PUBCHEM_CONFORMER_RMSD>
0.8

>  <PUBCHEM_CONFORMER_DIVERSEORDER>
1
57
49
30
42
33
44
14
53
22
19
10
12
45
3
41
11
32
40
15
36
55
29
9
38
4
58
17
37
43
52
24
51
35
20
56
31
39
16
2
21
23
28
34
26
18
25
5
46
47
6
48
8
13
50
7
27
54

>  <PUBCHEM_MMFF94_PARTIAL_CHARGES>
24
1 -0.43
10 -0.15
11 -0.15
12 -0.15
13 0.63
14 0.63
15 0.28
16 0.28
17 0.28
18 0.28
19 0.15
2 -0.43
20 0.15
21 0.15
22 0.15
3 -0.57
31 0.4
32 0.4
4 -0.57
5 -0.68
6 -0.68
7 0.09
8 0.09
9 -0.15

>  <PUBCHEM_EFFECTIVE_ROTOR_COUNT>
8

>  <PUBCHEM_PHARMACOPHORE_FEATURES>
7
1 3 acceptor
1 4 acceptor
1 5 acceptor
1 5 donor
1 6 acceptor
1 6 donor
6 7 8 9 10 11 12 rings

>  <PUBCHEM_HEAVY_ATOM_COUNT>
18

>  <PUBCHEM_ATOM_DEF_STEREO_COUNT>
0

>  <PUBCHEM_ATOM_UDEF_STEREO_COUNT>
0

>  <PUBCHEM_BOND_DEF_STEREO_COUNT>
0

>  <PUBCHEM_BOND_UDEF_STEREO_COUNT>
0

>  <PUBCHEM_ISOTOPIC_ATOM_COUNT>
0

>  <PUBCHEM_COMPONENT_COUNT>
1

>  <PUBCHEM_CACTVS_TAUTO_COUNT>
1

>  <PUBCHEM_CONFORMER_ID>
000035AB00000001

>  <PUBCHEM_MMFF94_ENERGY>
44.2295

>  <PUBCHEM_FEATURE_SELFOVERLAP>
35.523

>  <PUBCHEM_SHAPE_FINGERPRINT>
10968037 39 18410012152543713039
11089746 13 12540695946557521839
11806522 49 18410009918986535353
12236239 1 18410855447243259972
13533116 47 16660916683113605170
13862211 1 18410006628598832378
14251718 22 18411136939420945249
14251732 16 18410855494493175089
14528608 73 18409733958879929100
14787075 74 18409729560226607264
15196674 1 18338516313804112001
17834072 33 18412824698380719020
19489759 90 14418129604479230181
200 152 18412260623910614371
20645477 70 18199752449496498934
21267235 1 18412550889973548114
221490 88 18263928916185329587
23272321 79 18409451383816681488
23402539 116 18335415751807977061
23402655 69 18339074883518801269
23559900 14 18262797501097503721
34797466 226 17203614826284060588
350125 39 18411983563781164433
3545911 37 18410577275887755602
4325135 7 18410855468718096782
4340502 62 16732706042963078794
4463277 17 18412265021635592889
474 4 17676779746965951636
474229 33 18411136935353240571
5104073 3 18266741281369621474
7062679 117 18341894121495265503

>  <PUBCHEM_SHAPE_MULTIPOLES>
335.22
13.61
1.83
0.69
0
0
-0.08
0
-1.87
0
-0.09
0
0
-0.86

>  <PUBCHEM_SHAPE_SELFOVERLAP>
687.263

>  <PUBCHEM_SHAPE_VOLUME>
192.6

>  <PUBCHEM_COORDINATE_TYPE>
2
5
10

$$$$
13739
 OpenBabel11092011363D

 32 32  0  0  0  0  0  0  0  0999 V2000
    2.6843   -2.2870    0.7769 O   0  0  0  0  0  0  0  0  0  0  0  0
   -2.6812    2.2971   -0.4954 O   0  0  0  0  0  0  0  0  0  0  0  0
    3.6183   -0.5333   -0.3854 O   0  0  0  0  0  0  0  0  0  0  0  0
   -3.6208    0.5262    0.6360 O   0  0  0  0  0  0  0  0  0  0  0  0
    3.1787   -1.5839    3.4437 O   0  0  0  0  0  0  0  0  0  0  0  0
   -5.4599    3.5833   -2.4689 O   0  0  0  0  0  0  0  0  0  0  0  0
    1.2904   -0.5293    0.1305 C   0  0  0  0  0  0  0  0  0  0  0  0
   -1.2905    0.5298    0.1314 C   0  0  0  0  0  0  0  0  0  0  0  0
    0.1866   -1.3821    0.1311 C   0  0  0  0  0  0  0  0  0  0  0  0
   -1.1039   -0.8526    0.1315 C   0  0  0  0  0  0  0  0  0  0  0  0
    1.1037    0.8530    0.1304 C   0  0  0  0  0  0  0  0  0  0  0  0
   -0.1867    1.3826    0.1310 C   0  0  0  0  0  0  0  0  0  0  0  0
    2.6356   -1.0816    0.1313 C   0  0  0  0  0  0  0  0  0  0  0  0
   -2.6356    1.0817    0.1316 C   0  0  0  0  0  0  0  0  0  0  0  0
    3.9173   -2.6274    1.4197 C   0  0  0  0  0  0  0  0  0  0  0  0
   -3.5508    2.4095   -1.6271 C   0  0  0  0  0  0  0  0  0  0  0  0
    4.2255   -1.5886    2.4808 C   0  0  0  0  0  0  0  0  0  0  0  0
   -4.5859    3.4829   -1.3512 C   0  0  0  0  0  0  0  0  0  0  0  0
    0.3104   -2.4619    0.1314 H   0  0  0  0  0  0  0  0  0  0  0  0
   -1.9332   -1.5543    0.1317 H   0  0  0  0  0  0  0  0  0  0  0  0
    1.9330    1.5547    0.1300 H   0  0  0  0  0  0  0  0  0  0  0  0
   -0.3105    2.4624    0.1308 H   0  0  0  0  0  0  0  0  0  0  0  0
    3.8275   -3.6169    1.8809 H   0  0  0  0  0  0  0  0  0  0  0  0
    4.7118   -2.6421    0.6649 H   0  0  0  0  0  0  0  0  0  0  0  0
   -2.9652    2.6723   -2.5146 H   0  0  0  0  0  0  0  0  0  0  0  0
   -4.0465    1.4443   -1.7815 H   0  0  0  0  0  0  0  0  0  0  0  0
    4.3149   -0.5881    2.0482 H   0  0  0  0  0  0  0  0  0  0  0  0
    5.1523   -1.8346    3.0075 H   0  0  0  0  0  0  0  0  0  0  0  0
   -4.1107    4.4549   -1.1933 H   0  0  0  0  0  0  0  0  0  0  0  0
   -5.1912    3.2337   -0.4741 H   0  0  0  0  0  0  0  0  0  0  0  0
    2.3564   -1.3470    2.9817 H   0  0  0  0  0  0  0  0  0  0  0  0
   -5.8630    2.7085   -2.6035 H   0  0  0  0  0  0  0  0  0  0  0  0
  1 13  1  0  0  0  0
  1 15  1  0  0  0  0
  2 14  1  0  0  0  0
  2 16  1  0  0  0  0
  3 13  2  0  0  0  0
  4 14  2  0  0  0  0
  5 17  1  0  0  0  0
  5 31  1  0  0  0  0
  6 18  1  0  0  0  0
  6 32  1  0  0  0  0
  7  9  2  0  0  0  0
  7 11  1  0  0  0  0
  7 13  1  0  0  0  0
  8 10  2  0  0  0  0
  8 12  1  0  0  0  0
  8 14  1  0  0  0  0
  9 10  1  0  0  0  0
  9 19  1  0  0  0  0
 10 20  1  0  0  0  0
 11 12  2  0  0  0  0
 11 21  1  0  0  0  0
 12 22  1  0  0  0  0
 15 17  1  0  0  0  0
 15 23  1  0  0  0  0
 15 24  1  0  0  0  0
 16 18  1  0  0  0  0
 16 25  1  0  0  0  0
 16 26  1  0  0  0  0
 17 27  1  0  0  0  0
 17 28  1  0  0  0  0
 18 29  1  0  0  0  0
 18 30  1  0  0  0  0
M  END
>  <PUBCHEM_COMPOUND_CID>
13739

>  <PUBCHEM_CONFORMER_RMSD>
0.8

>  <PUBCHEM_CONFORMER_DIVERSEORDER>
1
57
49
30
42
33
44
14
53
22
19
10
12
45
3
41
11
32
40
15
36
55
29
9
38
4
58
17
37
43
52
24
51
35
20
56
31
39
16
2
21
23
28
34
26
18
25
5
46
47
6
48
8
13
50
7
27
54

>  <PUBCHEM_MMFF94_PARTIAL_CHARGES>
24
1 -0.43
10 -0.15
11 -0.15
12 -0.15
13 0.63
14 0.63
15 0.28
16 0.28
17 0.28
18 0.28
19 0.15
2 -0.43
20 0.15
21 0.15
22 0.15
3 -0.57
31 0.4
32 0.4
4 -0.57
5 -0.68
6 -0.68
7 0.09
8 0.09
9 -0.15

>  <PUBCHEM_EFFECTIVE_ROTOR_COUNT>
8

>  <PUBCHEM_PHARMACOPHORE_FEATURES>
7
1 3 acceptor
1 4 acceptor
1 5 acceptor
1 5 donor
1 6 acceptor
1 6 donor
6 7 8 9 10 11 12 rings

>  <PUBCHEM_HEAVY_ATOM_COUNT>
18

>  <PUBCHEM_ATOM_DEF_STEREO_COUNT>
0

>  <PUBCHEM_ATOM_UDEF_STEREO_COUNT>
0

>  <PUBCHEM_BOND_DEF_STEREO_COUNT>
0

>  <PUBCHEM_BOND_UDEF_STEREO_COUNT>
0

>  <PUBCHEM_ISOTOPIC_ATOM_COUNT>
0

>  <PUBCHEM_COMPONENT_COUNT>
1

>  <PUBCHEM_CACTVS_TAUTO_COUNT>
1

>  <PUBCHEM_CONFORMER_ID>
000035AB00000001

>  <PUBCHEM_MMFF94_ENERGY>
44.2295

>  <PUBCHEM_FEATURE_SELFOVERLAP>
35.523

>  <PUBCHEM_SHAPE_FINGERPRINT>
10968037 39 18410012152543713039
11089746 13 12540695946557521839
11806522 49 18410009918986535353
12236239 1 18410855447243259972
13533116 47 16660916683113605170
13862211 1 18410006628598832378
14251718 22 18411136939420945249
14251732 16 18410855494493175089
14528608 73 18409733958879929100
14787075 74 18409729560226607264
15196674 1 18338516313804112001
17834072 33 18412824698380719020
19489759 90 14418129604479230181
200 152 18412260623910614371
20645477 70 18199752449496498934
21267235 1 18412550889973548114
221490 88 18263928916185329587
23272321 79 18409451383816681488
23402539 116 18335415751807977061
23402655 69 18339074883518801269
23559900 14 18262797501097503721
34797466 226 17203614826284060588
350125 39 18411983563781164433
3545911 37 18410577275887755602
4325135 7 18410855468718096782
4340502 62 16732706042963078794
4463277 17 18412265021635592889
474 4 17676779746965951636
474229 33 18411136935353240571
5104073 3 18266741281369621474
7062679 117 18341894121495265503

>  <PUBCHEM_SHAPE_MULTIPOLES>
335.22
13.61
1.83
0.69
0
0
-0.08
0
-1.87
0
-0.09
0
0
-0.86

>  <PUBCHEM_SHAPE_SELFOVERLAP>
687.263

>  <PUBCHEM_SHAPE_VOLUME>
192.6

>  <PUBCHEM_COORDINATE_TYPE>
2
5
10

$$$$
13739
 OpenBabel11092011363D

 32 32  0  0  0  0  0  0  0  0999 V2000
    3.5844   -0.0957    0.1288 O   0  0  0  0  0  0  0  0  0  0  0  0
   -2.6812    2.2971   -0.4954 O   0  0  0  0  0  0  0  0  0  0  0  0
    2.8958   -2.2922    0.1329 O   0  0  0  0  0  0  0  0  0  0  0  0
   -3.6208    0.5262    0.6360 O   0  0  0  0  0  0  0  0  0  0  0  0
    3.4627    1.9084    2.0631 O   0  0  0  0  0  0  0  0  0  0  0  0
   -3.4816    4.0691    1.5027 O   0  0  0  0  0  0  0  0  0  0  0  0
    1.2904   -0.5293    0.1305 C   0  0  0  0  0  0  0  0  0  0  0  0
   -1.2905    0.5298    0.1314 C   0  0  0  0  0  0  0  0  0  0  0  0
    0.1866   -1.3821    0.1311 C   0  0  0  0  0  0  0  0  0  0  0  0
   -1.1039   -0.8526    0.1315 C   0  0  0  0  0  0  0  0  0  0  0  0
    1.1037    0.8530    0.1304 C   0  0  0  0  0  0  0  0  0  0  0  0
   -0.1867    1.3826    0.1310 C   0  0  0  0  0  0  0  0  0  0  0  0
    2.6356   -1.0816    0.1313 C   0  0  0  0  0  0  0  0  0  0  0  0
   -2.6356    1.0817    0.1316 C   0  0  0  0  0  0  0  0  0  0  0  0
    4.5030   -0.0788    1.2267 C   0  0  0  0  0  0  0  0  0  0  0  0
   -3.9559    2.9460   -0.5576 C   0  0  0  0  0  0  0  0  0  0  0  0
    3.8381    0.5832    2.4181 C   0  0  0  0  0  0  0  0  0  0  0  0
   -3.8649    4.2843    0.1498 C   0  0  0  0  0  0  0  0  0  0  0  0
    0.3104   -2.4619    0.1314 H   0  0  0  0  0  0  0  0  0  0  0  0
   -1.9332   -1.5543    0.1317 H   0  0  0  0  0  0  0  0  0  0  0  0
    1.9330    1.5547    0.1300 H   0  0  0  0  0  0  0  0  0  0  0  0
   -0.3105    2.4624    0.1308 H   0  0  0  0  0  0  0  0  0  0  0  0
    4.7872   -1.1057    1.4806 H   0  0  0  0  0  0  0  0  0  0  0  0
    5.3925    0.4879    0.9286 H   0  0  0  0  0  0  0  0  0  0  0  0
   -4.2412    3.0938   -1.6047 H   0  0  0  0  0  0  0  0  0  0  0  0
   -4.6945    2.3093   -0.0576 H   0  0  0  0  0  0  0  0  0  0  0  0
    4.5092    0.6230    3.2807 H   0  0  0  0  0  0  0  0  0  0  0  0
    2.9253    0.0497    2.6995 H   0  0  0  0  0  0  0  0  0  0  0  0
   -4.8290    4.7999    0.1396 H   0  0  0  0  0  0  0  0  0  0  0  0
   -3.1102    4.9272   -0.3138 H   0  0  0  0  0  0  0  0  0  0  0  0
    4.2745    2.3908    1.8305 H   0  0  0  0  0  0  0  0  0  0  0  0
   -2.6306    3.5985    1.4934 H   0  0  0  0  0  0  0  0  0  0  0  0
  1 13  1  0  0  0  0
  1 15  1  0  0  0  0
  2 14  1  0  0  0  0
  2 16  1  0  0  0  0
  3 13  2  0  0  0  0
  4 14  2  0  0  0  0
  5 17  1  0  0  0  0
  5 31  1  0  0  0  0
  6 18  1  0  0  0  0
  6 32  1  0  0  0  0
  7  9  2  0  0  0  0
  7 11  1  0  0  0  0
  7 13  1  0  0  0  0
  8 10  2  0  0  0  0
  8 12  1  0  0  0  0
  8 14  1  0  0  0  0
  9 10  1  0  0  0  0
  9 19  1  0  0  0  0
 10 20  1  0  0  0  0
 11 12  2  0  0  0  0
 11 21  1  0  0  0  0
 12 22  1  0  0  0  0
 15 17  1  0  0  0  0
 15 23  1  0  0  0  0
 15 24  1  0  0  0  0
 16 18  1  0  0  0  0
 16 25  1  0  0  0  0
 16 26  1  0  0  0  0
 17 27  1  0  0  0  0
 17 28  1  0  0  0  0
 18 29  1  0  0  0  0
 18 30  1  0  0  0  0
M  END
>  <PUBCHEM_COMPOUND_CID>
13739

>  <PUBCHEM_CONFORMER_RMSD>
0.8

>  <PUBCHEM_CONFORMER_DIVERSEORDER>
1
57
49
30
42
33
44
14
53
22
19
10
12
45
3
41
11
32
40
15
36
55
29
9
38
4
58
17
37
43
52
24
51
35
20
56
31
39
16
2
21
23
28
34
26
18
25
5
46
47
6
48
8
13
50
7
27
54

>  <PUBCHEM_MMFF94_PARTIAL_CHARGES>
24
1 -0.43
10 -0.15
11 -0.15
12 -0.15
13 0.63
14 0.63
15 0.28
16 0.28
17 0.28
18 0.28
19 0.15
2 -0.43
20 0.15
21 0.15
22 0.15
3 -0.57
31 0.4
32 0.4
4 -0.57
5 -0.68
6 -0.68
7 0.09
8 0.09
9 -0.15

>  <PUBCHEM_EFFECTIVE_ROTOR_COUNT>
8

>  <PUBCHEM_PHARMACOPHORE_FEATURES>
7
1 3 acceptor
1 4 acceptor
1 5 acceptor
1 5 donor
1 6 acceptor
1 6 donor
6 7 8 9 10 11 12 rings

>  <PUBCHEM_HEAVY_ATOM_COUNT>
18

>  <PUBCHEM_ATOM_DEF_STEREO_COUNT>
0

>  <PUBCHEM_ATOM_UDEF_STEREO_COUNT>
0

>  <PUBCHEM_BOND_DEF_STEREO_COUNT>
0

>  <PUBCHEM_BOND_UDEF_STEREO_COUNT>
0

>  <PUBCHEM_ISOTOPIC_ATOM_COUNT>
0

>  <PUBCHEM_COMPONENT_COUNT>
1

>  <PUBCHEM_CACTVS_TAUTO_COUNT>
1

>  <PUBCHEM_CONFORMER_ID>
000035AB00000001

>  <PUBCHEM_MMFF94_ENERGY>
44.2295

>  <PUBCHEM_FEATURE_SELFOVERLAP>
35.523

>  <PUBCHEM_SHAPE_FINGERPRINT>
10968037 39 18410012152543713039
11089746 13 12540695946557521839
11806522 49 18410009918986535353
12236239 1 18410855447243259972
13533116 47 16660916683113605170
13862211 1 18410006628598832378
14251718 22 18411136939420945249
14251732 16 18410855494493175089
14528608 73 18409733958879929100
14787075 74 18409729560226607264
15196674 1 18338516313804112001
17834072 33 18412824698380719020
19489759 90 14418129604479230181
200 152 18412260623910614371
20645477 70 18199752449496498934
21267235 1 18412550889973548114
221490 88 18263928916185329587
23272321 79 18409451383816681488
23402539 116 18335415751807977061
23402655 69 18339074883518801269
23559900 14 18262797501097503721
34797466 226 17203614826284060588
350125 39 18411983563781164433
3545911 37 18410577275887755602
4325135 7 18410855468718096782
4340502 62 16732706042963078794
4463277 17 18412265021635592889
474 4 17676779746965951636
474229 33 18411136935353240571
5104073 3 18266741281369621474
7062679 117 18341894121495265503

>  <PUBCHEM_SHAPE_MULTIPOLES>
335.22
13.61
1.83
0.69
0
0
-0.08
0
-1.87
0
-0.09
0
0
-0.86

>  <PUBCHEM_SHAPE_SELFOVERLAP>
687.263

>  <PUBCHEM_SHAPE_VOLUME>
192.6

>  <PUBCHEM_COORDINATE_TYPE>
2
5
10

$$$$
13739
 OpenBabel11092011363D

 32 32  0  0  0  0  0  0  0  0999 V2000
    2.6843   -2.2870    0.7769 O   0  0  0  0  0  0  0  0  0  0  0  0
   -2.6812    2.2971   -0.4954 O   0  0  0  0  0  0  0  0  0  0  0  0
    3.6183   -0.5333   -0.3854 O   0  0  0  0  0  0  0  0  0  0  0  0
   -3.6208    0.5262    0.6360 O   0  0  0  0  0  0  0  0  0  0  0  0
    3.1948   -4.5964   -0.6992 O   0  0  0  0  0  0  0  0  0  0  0  0
   -4.0519    2.5257   -2.9124 O   0  0  0  0  0  0  0  0  0  0  0  0
    1.2904   -0.5293    0.1305 C   0  0  0  0  0  0  0  0  0  0  0  0
   -1.2905    0.5298    0.1314 C   0  0  0  0  0  0  0  0  0  0  0  0
    0.1866   -1.3821    0.1311 C   0  0  0  0  0  0  0  0  0  0  0  0
   -1.1039   -0.8526    0.1315 C   0  0  0  0  0  0  0  0  0  0  0  0
    1.1037    0.8530    0.1304 C   0  0  0  0  0  0  0  0  0  0  0  0
   -0.1867    1.3826    0.1310 C   0  0  0  0  0  0  0  0  0  0  0  0
    2.6356   -1.0816    0.1313 C   0  0  0  0  0  0  0  0  0  0  0  0
   -2.6356    1.0817    0.1316 C   0  0  0  0  0  0  0  0  0  0  0  0
    3.9596   -2.9339    0.8443 C   0  0  0  0  0  0  0  0  0  0  0  0
   -3.9559    2.9460   -0.5576 C   0  0  0  0  0  0  0  0  0  0  0  0
    4.2250   -3.6428   -0.4700 C   0  0  0  0  0  0  0  0  0  0  0  0
   -4.7619    2.3455   -1.6932 C   0  0  0  0  0  0  0  0  0  0  0  0
    0.3104   -2.4619    0.1314 H   0  0  0  0  0  0  0  0  0  0  0  0
   -1.9332   -1.5543    0.1317 H   0  0  0  0  0  0  0  0  0  0  0  0
    1.9330    1.5547    0.1300 H   0  0  0  0  0  0  0  0  0  0  0  0
   -0.3105    2.4624    0.1308 H   0  0  0  0  0  0  0  0  0  0  0  0
    4.7387   -2.1866    1.0294 H   0  0  0  0  0  0  0  0  0  0  0  0
    3.9400   -3.6589    1.6661 H   0  0  0  0  0  0  0  0  0  0  0  0
   -4.4843    2.8076    0.3918 H   0  0  0  0  0  0  0  0  0  0  0  0
   -3.7932    4.0144   -0.7399 H   0  0  0  0  0  0  0  0  0  0  0  0
    5.1899   -4.1575   -0.4600 H   0  0  0  0  0  0  0  0  0  0  0  0
    4.2058   -2.9348   -1.3038 H   0  0  0  0  0  0  0  0  0  0  0  0
   -5.7365    2.8331   -1.7832 H   0  0  0  0  0  0  0  0  0  0  0  0
   -4.9113    1.2711   -1.5482 H   0  0  0  0  0  0  0  0  0  0  0  0
    3.2216   -5.2382    0.0309 H   0  0  0  0  0  0  0  0  0  0  0  0
   -3.1841    2.0988   -2.8104 H   0  0  0  0  0  0  0  0  0  0  0  0
  1 13  1  0  0  0  0
  1 15  1  0  0  0  0
  2 14  1  0  0  0  0
  2 16  1  0  0  0  0
  3 13  2  0  0  0  0
  4 14  2  0  0  0  0
  5 17  1  0  0  0  0
  5 31  1  0  0  0  0
  6 18  1  0  0  0  0
  6 32  1  0  0  0  0
  7  9  2  0  0  0  0
  7 11  1  0  0  0  0
  7 13  1  0  0  0  0
  8 10  2  0  0  0  0
  8 12  1  0  0  0  0
  8 14  1  0  0  0  0
  9 10  1  0  0  0  0
  9 19  1  0  0  0  0
 10 20  1  0  0  0  0
 11 12  2  0  0  0  0
 11 21  1  0  0  0  0
 12 22  1  0  0  0  0
 15 17  1  0  0  0  0
 15 23  1  0  0  0  0
 15 24  1  0  0  0  0
 16 18  1  0  0  0  0
 16 25  1  0  0  0  0
 16 26  1  0  0  0  0
 17 27  1  0  0  0  0
 17 28  1  0  0  0  0
 18 29  1  0  0  0  0
 18 30  1  0  0  0  0
M  END
>  <PUBCHEM_COMPOUND_CID>
13739

>  <PUBCHEM_CONFORMER_RMSD>
0.8

>  <PUBCHEM_CONFORMER_DIVERSEORDER>
1
57
49
30
42
33
44
14
53
22
19
10
12
45
3
41
11
32
40
15
36
55
29
9
38
4
58
17
37
43
52
24
51
35
20
56
31
39
16
2
21
23
28
34
26
18
25
5
46
47
6
48
8
13
50
7
27
54

>  <PUBCHEM_MMFF94_PARTIAL_CHARGES>
24
1 -0.43
10 -0.15
11 -0.15
12 -0.15
13 0.63
14 0.63
15 0.28
16 0.28
17 0.28
18 0.28
19 0.15
2 -0.43
20 0.15
21 0.15
22 0.15
3 -0.57
31 0.4
32 0.4
4 -0.57
5 -0.68
6 -0.68
7 0.09
8 0.09
9 -0.15

>  <PUBCHEM_EFFECTIVE_ROTOR_COUNT>
8

>  <PUBCHEM_PHARMACOPHORE_FEATURES>
7
1 3 acceptor
1 4 acceptor
1 5 acceptor
1 5 donor
1 6 acceptor
1 6 donor
6 7 8 9 10 11 12 rings

>  <PUBCHEM_HEAVY_ATOM_COUNT>
18

>  <PUBCHEM_ATOM_DEF_STEREO_COUNT>
0

>  <PUBCHEM_ATOM_UDEF_STEREO_COUNT>
0

>  <PUBCHEM_BOND_DEF_STEREO_COUNT>
0

>  <PUBCHEM_BOND_UDEF_STEREO_COUNT>
0

>  <PUBCHEM_ISOTOPIC_ATOM_COUNT>
0

>  <PUBCHEM_COMPONENT_COUNT>
1

>  <PUBCHEM_CACTVS_TAUTO_COUNT>
1

>  <PUBCHEM_CONFORMER_ID>
000035AB00000001

>  <PUBCHEM_MMFF94_ENERGY>
44.2295

>  <PUBCHEM_FEATURE_SELFOVERLAP>
35.523

>  <PUBCHEM_SHAPE_FINGERPRINT>
10968037 39 18410012152543713039
11089746 13 12540695946557521839
11806522 49 18410009918986535353
12236239 1 18410855447243259972
13533116 47 16660916683113605170
13862211 1 18410006628598832378
14251718 22 18411136939420945249
14251732 16 18410855494493175089
14528608 73 18409733958879929100
14787075 74 18409729560226607264
15196674 1 18338516313804112001
17834072 33 18412824698380719020
19489759 90 14418129604479230181
200 152 18412260623910614371
20645477 70 18199752449496498934
21267235 1 18412550889973548114
221490 88 18263928916185329587
23272321 79 18409451383816681488
23402539 116 18335415751807977061
23402655 69 18339074883518801269
23559900 14 18262797501097503721
34797466 226 17203614826284060588
350125 39 18411983563781164433
3545911 37 18410577275887755602
4325135 7 18410855468718096782
4340502 62 16732706042963078794
4463277 17 18412265021635592889
474 4 17676779746965951636
474229 33 18411136935353240571
5104073 3 18266741281369621474
7062679 117 18341894121495265503

>  <PUBCHEM_SHAPE_MULTIPOLES>
335.22
13.61
1.83
0.69
0
0
-0.08
0
-1.87
0
-0.09
0
0
-0.86

>  <PUBCHEM_SHAPE_SELFOVERLAP>
687.263

>  <PUBCHEM_SHAPE_VOLUME>
192.6

>  <PUBCHEM_COORDINATE_TYPE>
2
5
10

$$$$
13739
 OpenBabel11092011363D

 32 32  0  0  0  0  0  0  0  0999 V2000
    3.5213   -0.2484    0.7586 O   0  0  0  0  0  0  0  0  0  0  0  0
   -2.6812    2.2971   -0.4954 O   0  0  0  0  0  0  0  0  0  0  0  0
    2.9466   -2.1692   -0.3723 O   0  0  0  0  0  0  0  0  0  0  0  0
   -3.6208    0.5262    0.6360 O   0  0  0  0  0  0  0  0  0  0  0  0
    2.9459    0.6516    3.3338 O   0  0  0  0  0  0  0  0  0  0  0  0
   -1.9706    4.6073    0.9218 O   0  0  0  0  0  0  0  0  0  0  0  0
    1.2904   -0.5293    0.1305 C   0  0  0  0  0  0  0  0  0  0  0  0
   -1.2905    0.5298    0.1314 C   0  0  0  0  0  0  0  0  0  0  0  0
    0.1866   -1.3821    0.1311 C   0  0  0  0  0  0  0  0  0  0  0  0
   -1.1039   -0.8526    0.1315 C   0  0  0  0  0  0  0  0  0  0  0  0
    1.1037    0.8530    0.1304 C   0  0  0  0  0  0  0  0  0  0  0  0
   -0.1867    1.3826    0.1310 C   0  0  0  0  0  0  0  0  0  0  0  0
    2.6356   -1.0816    0.1313 C   0  0  0  0  0  0  0  0  0  0  0  0
   -2.6356    1.0817    0.1316 C   0  0  0  0  0  0  0  0  0  0  0  0
    4.2156   -0.7778    1.8930 C   0  0  0  0  0  0  0  0  0  0  0  0
   -3.6721    3.2242   -0.0390 C   0  0  0  0  0  0  0  0  0  0  0  0
    3.3088   -0.7048    3.1065 C   0  0  0  0  0  0  0  0  0  0  0  0
   -3.1706    3.9043    1.2203 C   0  0  0  0  0  0  0  0  0  0  0  0
    0.3104   -2.4619    0.1314 H   0  0  0  0  0  0  0  0  0  0  0  0
   -1.9332   -1.5543    0.1317 H   0  0  0  0  0  0  0  0  0  0  0  0
    1.9330    1.5547    0.1300 H   0  0  0  0  0  0  0  0  0  0  0  0
   -0.3105    2.4624    0.1308 H   0  0  0  0  0  0  0  0  0  0  0  0
    4.4943   -1.8189    1.6973 H   0  0  0  0  0  0  0  0  0  0  0  0
    5.1181   -0.1788    2.0605 H   0  0  0  0  0  0  0  0  0  0  0  0
   -3.8624    3.9703   -0.8179 H   0  0  0  0  0  0  0  0  0  0  0  0
   -4.5925    2.6702    0.1776 H   0  0  0  0  0  0  0  0  0  0  0  0
    3.8035   -1.0949    4.0005 H   0  0  0  0  0  0  0  0  0  0  0  0
    2.3852   -1.2655    2.9354 H   0  0  0  0  0  0  0  0  0  0  0  0
   -2.9585    3.1718    2.0039 H   0  0  0  0  0  0  0  0  0  0  0  0
   -3.8990    4.6296    1.5960 H   0  0  0  0  0  0  0  0  0  0  0  0
    3.7638    1.1492    3.5049 H   0  0  0  0  0  0  0  0  0  0  0  0
   -2.1736    5.2438    0.2150 H   0  0  0  0  0  0  0  0  0  0  0  0
  1 13  1  0  0  0  0
  1 15  1  0  0  0  0
  2 14  1  0  0  0  0
  2 16  1  0  0  0  0
  3 13  2  0  0  0  0
  4 14  2  0  0  0  0
  5 17  1  0  0  0  0
  5 31  1  0  0  0  0
  6 18  1  0  0  0  0
  6 32  1  0  0  0  0
  7  9  2  0  0  0  0
  7 11  1  0  0  0  0
  7 13  1  0  0  0  0
  8 10  2  0  0  0  0
  8 12  1  0  0  0  0
  8 14  1  0  0  0  0
  9 10  1  0  0  0  0
  9 19  1  0  0  0  0
 10 20  1  0  0  0  0
 11 12  2  0  0  0  0
 11 21  1  0  0  0  0
 12 22  1  0  0  0  0
 15 17  1  0  0  0  0
 15 23  1  0  0  0  0
 15 24  1  0  0  0  0
 16 18  1  0  0  0  0
 16 25  1  0  0  0  0
 16 26  1  0  0  0  0
 17 27  1  0  0  0  0
 17 28  1  0  0  0  0
 18 29  1  0  0  0  0
 18 30  1  0  0  0  0
M  END
>  <PUBCHEM_COMPOUND_CID>
13739

>  <PUBCHEM_CONFORMER_RMSD>
0.8

>  <PUBCHEM_CONFORMER_DIVERSEORDER>
1
57
49
30
42
33
44
14
53
22
19
10
12
45
3
41
11
32
40
15
36
55
29
9
38
4
58
17
37
43
52
24
51
35
20
56
31
39
16
2
21
23
28
34
26
18
25
5
46
47
6
48
8
13
50
7
27
54

>  <PUBCHEM_MMFF94_PARTIAL_CHARGES>
24
1 -0.43
10 -0.15
11 -0.15
12 -0.15
13 0.63
14 0.63
15 0.28
16 0.28
17 0.28
18 0.28
19 0.15
2 -0.43
20 0.15
21 0.15
22 0.15
3 -0.57
31 0.4
32 0.4
4 -0.57
5 -0.68
6 -0.68
7 0.09
8 0.09
9 -0.15

>  <PUBCHEM_EFFECTIVE_ROTOR_COUNT>
8

>  <PUBCHEM_PHARMACOPHORE_FEATURES>
7
1 3 acceptor
1 4 acceptor
1 5 acceptor
1 5 donor
1 6 acceptor
1 6 donor
6 7 8 9 10 11 12 rings

>  <PUBCHEM_HEAVY_ATOM_COUNT>
18

>  <PUBCHEM_ATOM_DEF_STEREO_COUNT>
0

>  <PUBCHEM_ATOM_UDEF_STEREO_COUNT>
0

>  <PUBCHEM_BOND_DEF_STEREO_COUNT>
0

>  <PUBCHEM_BOND_UDEF_STEREO_COUNT>
0

>  <PUBCHEM_ISOTOPIC_ATOM_COUNT>
0

>  <PUBCHEM_COMPONENT_COUNT>
1

>  <PUBCHEM_CACTVS_TAUTO_COUNT>
1

>  <PUBCHEM_CONFORMER_ID>
000035AB00000001

>  <PUBCHEM_MMFF94_ENERGY>
44.2295

>  <PUBCHEM_FEATURE_SELFOVERLAP>
35.523

>  <PUBCHEM_SHAPE_FINGERPRINT>
10968037 39 18410012152543713039
11089746 13 12540695946557521839
11806522 49 18410009918986535353
12236239 1 18410855447243259972
13533116 47 16660916683113605170
13862211 1 18410006628598832378
14251718 22 18411136939420945249
14251732 16 18410855494493175089
14528608 73 18409733958879929100
14787075 74 18409729560226607264
15196674 1 18338516313804112001
17834072 33 18412824698380719020
19489759 90 14418129604479230181
200 152 18412260623910614371
20645477 70 18199752449496498934
21267235 1 18412550889973548114
221490 88 18263928916185329587
23272321 79 18409451383816681488
23402539 116 18335415751807977061
23402655 69 18339074883518801269
23559900 14 18262797501097503721
34797466 226 17203614826284060588
350125 39 18411983563781164433
3545911 37 18410577275887755602
4325135 7 18410855468718096782
4340502 62 16732706042963078794
4463277 17 18412265021635592889
474 4 17676779746965951636
474229 33 18411136935353240571
5104073 3 18266741281369621474
7062679 117 18341894121495265503

>  <PUBCHEM_SHAPE_MULTIPOLES>
335.22
13.61
1.83
0.69
0
0
-0.08
0
-1.87
0
-0.09
0
0
-0.86

>  <PUBCHEM_SHAPE_SELFOVERLAP>
687.263

>  <PUBCHEM_SHAPE_VOLUME>
192.6

>  <PUBCHEM_COORDINATE_TYPE>
2
5
10

$$$$
13739
 OpenBabel11092011363D

 32 32  0  0  0  0  0  0  0  0999 V2000
    3.5844   -0.0957    0.1288 O   0  0  0  0  0  0  0  0  0  0  0  0
   -2.6812    2.2971   -0.4954 O   0  0  0  0  0  0  0  0  0  0  0  0
    2.8958   -2.2922    0.1329 O   0  0  0  0  0  0  0  0  0  0  0  0
   -3.6208    0.5262    0.6360 O   0  0  0  0  0  0  0  0  0  0  0  0
    4.5144   -1.9433   -1.7405 O   0  0  0  0  0  0  0  0  0  0  0  0
   -6.2430    3.0208   -0.7413 O   0  0  0  0  0  0  0  0  0  0  0  0
    1.2904   -0.5293    0.1305 C   0  0  0  0  0  0  0  0  0  0  0  0
   -1.2905    0.5298    0.1314 C   0  0  0  0  0  0  0  0  0  0  0  0
    0.1866   -1.3821    0.1311 C   0  0  0  0  0  0  0  0  0  0  0  0
   -1.1039   -0.8526    0.1315 C   0  0  0  0  0  0  0  0  0  0  0  0
    1.1037    0.8530    0.1304 C   0  0  0  0  0  0  0  0  0  0  0  0
   -0.1867    1.3826    0.1310 C   0  0  0  0  0  0  0  0  0  0  0  0
    2.6356   -1.0816    0.1313 C   0  0  0  0  0  0  0  0  0  0  0  0
   -2.6356    1.0817    0.1316 C   0  0  0  0  0  0  0  0  0  0  0  0
    4.9532   -0.5149    0.1298 C   0  0  0  0  0  0  0  0  0  0  0  0
   -3.9116    2.6485   -1.1376 C   0  0  0  0  0  0  0  0  0  0  0  0
    5.3563   -0.8922   -1.2827 C   0  0  0  0  0  0  0  0  0  0  0  0
   -5.0174    2.6877   -0.1006 C   0  0  0  0  0  0  0  0  0  0  0  0
    0.3104   -2.4619    0.1314 H   0  0  0  0  0  0  0  0  0  0  0  0
   -1.9332   -1.5543    0.1317 H   0  0  0  0  0  0  0  0  0  0  0  0
    1.9330    1.5547    0.1300 H   0  0  0  0  0  0  0  0  0  0  0  0
   -0.3105    2.4624    0.1308 H   0  0  0  0  0  0  0  0  0  0  0  0
    5.5851    0.3029    0.4926 H   0  0  0  0  0  0  0  0  0  0  0  0
    5.0522   -1.3811    0.7940 H   0  0  0  0  0  0  0  0  0  0  0  0
   -3.8092    3.6293   -1.6142 H   0  0  0  0  0  0  0  0  0  0  0  0
   -4.1373    1.8891   -1.8949 H   0  0  0  0  0  0  0  0  0  0  0  0
    6.3970   -1.2255   -1.3270 H   0  0  0  0  0  0  0  0  0  0  0  0
    5.2223   -0.0466   -1.9637 H   0  0  0  0  0  0  0  0  0  0  0  0
   -4.8103    3.4398    0.6656 H   0  0  0  0  0  0  0  0  0  0  0  0
   -5.1449    1.7128    0.3800 H   0  0  0  0  0  0  0  0  0  0  0  0
    4.6455   -2.7031   -1.1479 H   0  0  0  0  0  0  0  0  0  0  0  0
   -6.4048    2.3510   -1.4275 H   0  0  0  0  0  0  0  0  0  0  0  0
  1 13  1  0  0  0  0
  1 15  1  0  0  0  0
  2 14  1  0  0  0  0
  2 16  1  0  0  0  0
  3 13  2  0  0  0  0
  4 14  2  0  0  0  0
  5 17  1  0  0  0  0
  5 31  1  0  0  0  0
  6 18  1  0  0  0  0
  6 32  1  0  0  0  0
  7  9  2  0  0  0  0
  7 11  1  0  0  0  0
  7 13  1  0  0  0  0
  8 10  2  0  0  0  0
  8 12  1  0  0  0  0
  8 14  1  0  0  0  0
  9 10  1  0  0  0  0
  9 19  1  0  0  0  0
 10 20  1  0  0  0  0
 11 12  2  0  0  0  0
 11 21  1  0  0  0  0
 12 22  1  0  0  0  0
 15 17  1  0  0  0  0
 15 23  1  0  0  0  0
 15 24  1  0  0  0  0
 16 18  1  0  0  0  0
 16 25  1  0  0  0  0
 16 26  1  0  0  0  0
 17 27  1  0  0  0  0
 17 28  1  0  0  0  0
 18 29  1  0  0  0  0
 18 30  1  0  0  0  0
M  END
>  <PUBCHEM_COMPOUND_CID>
13739

>  <PUBCHEM_CONFORMER_RMSD>
0.8

>  <PUBCHEM_CONFORMER_DIVERSEORDER>
1
57
49
30
42
33
44
14
53
22
19
10
12
45
3
41
11
32
40
15
36
55
29
9
38
4
58
17
37
43
52
24
51
35
20
56
31
39
16
2
21
23
28
34
26
18
25
5
46
47
6
48
8
13
50
7
27
54

>  <PUBCHEM_MMFF94_PARTIAL_CHARGES>
24
1 -0.43
10 -0.15
11 -0.15
12 -0.15
13 0.63
14 0.63
15 0.28
16 0.28
17 0.28
18 0.28
19 0.15
2 -0.43
20 0.15
21 0.15
22 0.15
3 -0.57
31 0.4
32 0.4
4 -0.57
5 -0.68
6 -0.68
7 0.09
8 0.09
9 -0.15

>  <PUBCHEM_EFFECTIVE_ROTOR_COUNT>
8

>  <PUBCHEM_PHARMACOPHORE_FEATURES>
7
1 3 acceptor
1 4 acceptor
1 5 acceptor
1 5 donor
1 6 acceptor
1 6 donor
6 7 8 9 10 11 12 rings

>  <PUBCHEM_HEAVY_ATOM_COUNT>
18

>  <PUBCHEM_ATOM_DEF_STEREO_COUNT>
0

>  <PUBCHEM_ATOM_UDEF_STEREO_COUNT>
0

>  <PUBCHEM_BOND_DEF_STEREO_COUNT>
0

>  <PUBCHEM_BOND_UDEF_STEREO_COUNT>
0

>  <PUBCHEM_ISOTOPIC_ATOM_COUNT>
0

>  <PUBCHEM_COMPONENT_COUNT>
1

>  <PUBCHEM_CACTVS_TAUTO_COUNT>
1

>  <PUBCHEM_CONFORMER_ID>
000035AB00000001

>  <PUBCHEM_MMFF94_ENERGY>
44.2295

>  <PUBCHEM_FEATURE_SELFOVERLAP>
35.523

>  <PUBCHEM_SHAPE_FINGERPRINT>
10968037 39 18410012152543713039
11089746 13 12540695946557521839
11806522 49 18410009918986535353
12236239 1 18410855447243259972
13533116 47 16660916683113605170
13862211 1 18410006628598832378
14251718 22 18411136939420945249
14251732 16 18410855494493175089
14528608 73 18409733958879929100
14787075 74 18409729560226607264
15196674 1 18338516313804112001
17834072 33 18412824698380719020
19489759 90 14418129604479230181
200 152 18412260623910614371
20645477 70 18199752449496498934
21267235 1 18412550889973548114
221490 88 18263928916185329587
23272321 79 18409451383816681488
23402539 116 18335415751807977061
23402655 69 18339074883518801269
23559900 14 18262797501097503721
34797466 226 17203614826284060588
350125 39 18411983563781164433
3545911 37 18410577275887755602
4325135 7 18410855468718096782
4340502 62 16732706042963078794
4463277 17 18412265021635592889
474 4 17676779746965951636
474229 33 18411136935353240571
5104073 3 18266741281369621474
7062679 117 18341894121495265503

>  <PUBCHEM_SHAPE_MULTIPOLES>
335.22
13.61
1.83
0.69
0
0
-0.08
0
-1.87
0
-0.09
0
0
-0.86

>  <PUBCHEM_SHAPE_SELFOVERLAP>
687.263

>  <PUBCHEM_SHAPE_VOLUME>
192.6

>  <PUBCHEM_COORDINATE_TYPE>
2
5
10

$$$$
13739
 OpenBabel11092011363D

 32 32  0  0  0  0  0  0  0  0999 V2000
    2.6843   -2.2870    0.7769 O   0  0  0  0  0  0  0  0  0  0  0  0
   -3.5178    0.2583   -0.5136 O   0  0  0  0  0  0  0  0  0  0  0  0
    3.6183   -0.5333   -0.3854 O   0  0  0  0  0  0  0  0  0  0  0  0
   -2.9494    2.1624    0.6485 O   0  0  0  0  0  0  0  0  0  0  0  0
    0.8904   -3.8161   -0.7119 O   0  0  0  0  0  0  0  0  0  0  0  0
   -5.3237   -0.3635    1.5173 O   0  0  0  0  0  0  0  0  0  0  0  0
    1.2904   -0.5293    0.1305 C   0  0  0  0  0  0  0  0  0  0  0  0
   -1.2905    0.5298    0.1314 C   0  0  0  0  0  0  0  0  0  0  0  0
    0.1866   -1.3821    0.1311 C   0  0  0  0  0  0  0  0  0  0  0  0
   -1.1039   -0.8526    0.1315 C   0  0  0  0  0  0  0  0  0  0  0  0
    1.1037    0.8530    0.1304 C   0  0  0  0  0  0  0  0  0  0  0  0
   -0.1867    1.3826    0.1310 C   0  0  0  0  0  0  0  0  0  0  0  0
    2.6356   -1.0816    0.1313 C   0  0  0  0  0  0  0  0  0  0  0  0
   -2.6356    1.0817    0.1316 C   0  0  0  0  0  0  0  0  0  0  0  0
    3.1353   -3.4116    0.0146 C   0  0  0  0  0  0  0  0  0  0  0  0
   -4.8792    0.6956   -0.5831 C   0  0  0  0  0  0  0  0  0  0  0  0
    2.2173   -3.6017   -1.1775 C   0  0  0  0  0  0  0  0  0  0  0  0
   -5.4136    0.8756    0.8247 C   0  0  0  0  0  0  0  0  0  0  0  0
    0.3104   -2.4619    0.1314 H   0  0  0  0  0  0  0  0  0  0  0  0
   -1.9332   -1.5543    0.1317 H   0  0  0  0  0  0  0  0  0  0  0  0
    1.9330    1.5547    0.1300 H   0  0  0  0  0  0  0  0  0  0  0  0
   -0.3105    2.4624    0.1308 H   0  0  0  0  0  0  0  0  0  0  0  0
    4.1602   -3.2329   -0.3282 H   0  0  0  0  0  0  0  0  0  0  0  0
    3.1096   -4.3004    0.6555 H   0  0  0  0  0  0  0  0  0  0  0  0
   -4.9323    1.6439   -1.1286 H   0  0  0  0  0  0  0  0  0  0  0  0
   -5.4630   -0.0686   -1.1087 H   0  0  0  0  0  0  0  0  0  0  0  0
    2.5229   -4.4574   -1.7863 H   0  0  0  0  0  0  0  0  0  0  0  0
    2.2026   -2.7045   -1.8033 H   0  0  0  0  0  0  0  0  0  0  0  0
   -6.4607    1.1902    0.8097 H   0  0  0  0  0  0  0  0  0  0  0  0
   -4.8262    1.6132    1.3803 H   0  0  0  0  0  0  0  0  0  0  0  0
    0.8966   -4.6239   -0.1705 H   0  0  0  0  0  0  0  0  0  0  0  0
   -4.3899   -0.6351    1.5094 H   0  0  0  0  0  0  0  0  0  0  0  0
  1 13  1  0  0  0  0
  1 15  1  0  0  0  0
  2 14  1  0  0  0  0
  2 16  1  0  0  0  0
  3 13  2  0  0  0  0
  4 14  2  0  0  0  0
  5 17  1  0  0  0  0
  5 31  1  0  0  0  0
  6 18  1  0  0  0  0
  6 32  1  0  0  0  0
  7  9  2  0  0  0  0
  7 11  1  0  0  0  0
  7 13  1  0  0  0  0
  8 10  2  0  0  0  0
  8 12  1  0  0  0  0
  8 14  1  0  0  0  0
  9 10  1  0  0  0  0
  9 19  1  0  0  0  0
 10 20  1  0  0  0  0
 11 12  2  0  0  0  0
 11 21  1  0  0  0  0
 12 22  1  0  0  0  0
 15 17  1  0  0  0  0
 15 23  1  0  0  0  0
 15 24  1  0  0  0  0
 16 18  1  0  0  0  0
 16 25  1  0  0  0  0
 16 26  1  0  0  0  0
 17 27  1  0  0  0  0
 17 28  1  0  0  0  0
 18 29  1  0  0  0  0
 18 30  1  0  0  0  0
M  END
>  <PUBCHEM_COMPOUND_CID>
13739

>  <PUBCHEM_CONFORMER_RMSD>
0.8

>  <PUBCHEM_CONFORMER_DIVERSEORDER>
1
57
49
30
42
33
44
14
53
22
19
10
12
45
3
41
11
32
40
15
36
55
29
9
38
4
58
17
37
43
52
24
51
35
20
56
31
39
16
2
21
23
28
34
26
18
25
5
46
47
6
48
8
13
50
7
27
54

>  <PUBCHEM_MMFF94_PARTIAL_CHARGES>
24
1 -0.43
10 -0.15
11 -0.15
12 -0.15
13 0.63
14 0.63
15 0.28
16 0.28
17 0.28
18 0.28
19 0.15
2 -0.43
20 0.15
21 0.15
22 0.15
3 -0.57
31 0.4
32 0.4
4 -0.57
5 -0.68
6 -0.68
7 0.09
8 0.09
9 -0.15

>  <PUBCHEM_EFFECTIVE_ROTOR_COUNT>
8

>  <PUBCHEM_PHARMACOPHORE_FEATURES>
7
1 3 acceptor
1 4 acceptor
1 5 acceptor
1 5 donor
1 6 acceptor
1 6 donor
6 7 8 9 10 11 12 rings

>  <PUBCHEM_HEAVY_ATOM_COUNT>
18

>  <PUBCHEM_ATOM_DEF_STEREO_COUNT>
0

>  <PUBCHEM_ATOM_UDEF_STEREO_COUNT>
0

>  <PUBCHEM_BOND_DEF_STEREO_COUNT>
0

>  <PUBCHEM_BOND_UDEF_STEREO_COUNT>
0

>  <PUBCHEM_ISOTOPIC_ATOM_COUNT>
0

>  <PUBCHEM_COMPONENT_COUNT>
1

>  <PUBCHEM_CACTVS_TAUTO_COUNT>
1

>  <PUBCHEM_CONFORMER_ID>
000035AB00000001

>  <PUBCHEM_MMFF94_ENERGY>
44.2295

>  <PUBCHEM_FEATURE_SELFOVERLAP>
35.523

>  <PUBCHEM_SHAPE_FINGERPRINT>
10968037 39 18410012152543713039
11089746 13 12540695946557521839
11806522 49 18410009918986535353
12236239 1 18410855447243259972
13533116 47 16660916683113605170
13862211 1 18410006628598832378
14251718 22 18411136939420945249
14251732 16 18410855494493175089
14528608 73 18409733958879929100
14787075 74 18409729560226607264
15196674 1 18338516313804112001
17834072 33 18412824698380719020
19489759 90 14418129604479230181
200 152 18412260623910614371
20645477 70 18199752449496498934
21267235 1 18412550889973548114
221490 88 18263928916185329587
23272321 79 18409451383816681488
23402539 116 18335415751807977061
23402655 69 18339074883518801269
23559900 14 18262797501097503721
34797466 226 17203614826284060588
350125 39 18411983563781164433
3545911 37 18410577275887755602
4325135 7 18410855468718096782
4340502 62 16732706042963078794
4463277 17 18412265021635592889
474 4 17676779746965951636
474229 33 18411136935353240571
5104073 3 18266741281369621474
7062679 117 18341894121495265503

>  <PUBCHEM_SHAPE_MULTIPOLES>
335.22
13.61
1.83
0.69
0
0
-0.08
0
-1.87
0
-0.09
0
0
-0.86

>  <PUBCHEM_SHAPE_SELFOVERLAP>
687.263

>  <PUBCHEM_SHAPE_VOLUME>
192.6

>  <PUBCHEM_COORDINATE_TYPE>
2
5
10

$$$$
13739
 OpenBabel11092011363D

 32 32  0  0  0  0  0  0  0  0999 V2000
    3.5844   -0.0957    0.1288 O   0  0  0  0  0  0  0  0  0  0  0  0
   -3.5178    0.2583   -0.5136 O   0  0  0  0  0  0  0  0  0  0  0  0
    2.8958   -2.2922    0.1329 O   0  0  0  0  0  0  0  0  0  0  0  0
   -2.9494    2.1624    0.6485 O   0  0  0  0  0  0  0  0  0  0  0  0
    6.4769   -1.0547   -1.8671 O   0  0  0  0  0  0  0  0  0  0  0  0
   -4.8858    2.6765   -0.2814 O   0  0  0  0  0  0  0  0  0  0  0  0
    1.2904   -0.5293    0.1305 C   0  0  0  0  0  0  0  0  0  0  0  0
   -1.2905    0.5298    0.1314 C   0  0  0  0  0  0  0  0  0  0  0  0
    0.1866   -1.3821    0.1311 C   0  0  0  0  0  0  0  0  0  0  0  0
   -1.1039   -0.8526    0.1315 C   0  0  0  0  0  0  0  0  0  0  0  0
    1.1037    0.8530    0.1304 C   0  0  0  0  0  0  0  0  0  0  0  0
   -0.1867    1.3826    0.1310 C   0  0  0  0  0  0  0  0  0  0  0  0
    2.6356   -1.0816    0.1313 C   0  0  0  0  0  0  0  0  0  0  0  0
   -2.6356    1.0817    0.1316 C   0  0  0  0  0  0  0  0  0  0  0  0
    4.4833   -0.0655   -0.9850 C   0  0  0  0  0  0  0  0  0  0  0  0
   -4.8783    0.2920   -0.0693 C   0  0  0  0  0  0  0  0  0  0  0  0
    5.5746   -1.0961   -0.7683 C   0  0  0  0  0  0  0  0  0  0  0  0
   -5.5693    1.4950   -0.6817 C   0  0  0  0  0  0  0  0  0  0  0  0
    0.3104   -2.4619    0.1314 H   0  0  0  0  0  0  0  0  0  0  0  0
   -1.9332   -1.5543    0.1317 H   0  0  0  0  0  0  0  0  0  0  0  0
    1.9330    1.5547    0.1300 H   0  0  0  0  0  0  0  0  0  0  0  0
   -0.3105    2.4624    0.1308 H   0  0  0  0  0  0  0  0  0  0  0  0
    3.9329   -0.2922   -1.9045 H   0  0  0  0  0  0  0  0  0  0  0  0
    4.9203    0.9373   -1.0534 H   0  0  0  0  0  0  0  0  0  0  0  0
   -5.3867   -0.6287   -0.3752 H   0  0  0  0  0  0  0  0  0  0  0  0
   -4.8848    0.3744    1.0235 H   0  0  0  0  0  0  0  0  0  0  0  0
    5.1618   -2.1055   -0.6852 H   0  0  0  0  0  0  0  0  0  0  0  0
    6.1492   -0.8692    0.1346 H   0  0  0  0  0  0  0  0  0  0  0  0
   -6.6078    1.5638   -0.3465 H   0  0  0  0  0  0  0  0  0  0  0  0
   -5.5483    1.4501   -1.7750 H   0  0  0  0  0  0  0  0  0  0  0  0
    5.9726   -1.2745   -2.6690 H   0  0  0  0  0  0  0  0  0  0  0  0
   -3.9624    2.5929   -0.5748 H   0  0  0  0  0  0  0  0  0  0  0  0
  1 13  1  0  0  0  0
  1 15  1  0  0  0  0
  2 14  1  0  0  0  0
  2 16  1  0  0  0  0
  3 13  2  0  0  0  0
  4 14  2  0  0  0  0
  5 17  1  0  0  0  0
  5 31  1  0  0  0  0
  6 18  1  0  0  0  0
  6 32  1  0  0  0  0
  7  9  2  0  0  0  0
  7 11  1  0  0  0  0
  7 13  1  0  0  0  0
  8 10  2  0  0  0  0
  8 12  1  0  0  0  0
  8 14  1  0  0  0  0
  9 10  1  0  0  0  0
  9 19  1  0  0  0  0
 10 20  1  0  0  0  0
 11 12  2  0  0  0  0
 11 21  1  0  0  0  0
 12 22  1  0  0  0  0
 15 17  1  0  0  0  0
 15 23  1  0  0  0  0
 15 24  1  0  0  0  0
 16 18  1  0  0  0  0
 16 25  1  0  0  0  0
 16 26  1  0  0  0  0
 17 27  1  0  0  0  0
 17 28  1  0  0  0  0
 18 29  1  0  0  0  0
 18 30  1  0  0  0  0
M  END
>  <PUBCHEM_COMPOUND_CID>
13739

>  <PUBCHEM_CONFORMER_RMSD>
0.8

>  <PUBCHEM_CONFORMER_DIVERSEORDER>
1
57
49
30
42
33
44
14
53
22
19
10
12
45
3
41
11
32
40
15
36
55
29
9
38
4
58
17
37
43
52
24
51
35
20
56
31
39
16
2
21
23
28
34
26
18
25
5
46
47
6
48
8
13
50
7
27
54

>  <PUBCHEM_MMFF94_PARTIAL_CHARGES>
24
1 -0.43
10 -0.15
11 -0.15
12 -0.15
13 0.63
14 0.63
15 0.28
16 0.28
17 0.28
18 0.28
19 0.15
2 -0.43
20 0.15
21 0.15
22 0.15
3 -0.57
31 0.4
32 0.4
4 -0.57
5 -0.68
6 -0.68
7 0.09
8 0.09
9 -0.15

>  <PUBCHEM_EFFECTIVE_ROTOR_COUNT>
8

>  <PUBCHEM_PHARMACOPHORE_FEATURES>
7
1 3 acceptor
1 4 acceptor
1 5 acceptor
1 5 donor
1 6 acceptor
1 6 donor
6 7 8 9 10 11 12 rings

>  <PUBCHEM_HEAVY_ATOM_COUNT>
18

>  <PUBCHEM_ATOM_DEF_STEREO_COUNT>
0

>  <PUBCHEM_ATOM_UDEF_STEREO_COUNT>
0

>  <PUBCHEM_BOND_DEF_STEREO_COUNT>
0

>  <PUBCHEM_BOND_UDEF_STEREO_COUNT>
0

>  <PUBCHEM_ISOTOPIC_ATOM_COUNT>
0

>  <PUBCHEM_COMPONENT_COUNT>
1

>  <PUBCHEM_CACTVS_TAUTO_COUNT>
1

>  <PUBCHEM_CONFORMER_ID>
000035AB00000001

>  <PUBCHEM_MMFF94_ENERGY>
44.2295

>  <PUBCHEM_FEATURE_SELFOVERLAP>
35.523

>  <PUBCHEM_SHAPE_FINGERPRINT>
10968037 39 18410012152543713039
11089746 13 12540695946557521839
11806522 49 18410009918986535353
12236239 1 18410855447243259972
13533116 47 16660916683113605170
13862211 1 18410006628598832378
14251718 22 18411136939420945249
14251732 16 18410855494493175089
14528608 73 18409733958879929100
14787075 74 18409729560226607264
15196674 1 18338516313804112001
17834072 33 18412824698380719020
19489759 90 14418129604479230181
200 152 18412260623910614371
20645477 70 18199752449496498934
21267235 1 18412550889973548114
221490 88 18263928916185329587
23272321 79 18409451383816681488
23402539 116 18335415751807977061
23402655 69 18339074883518801269
23559900 14 18262797501097503721
34797466 226 17203614826284060588
350125 39 18411983563781164433
3545911 37 18410577275887755602
4325135 7 18410855468718096782
4340502 62 16732706042963078794
4463277 17 18412265021635592889
474 4 17676779746965951636
474229 33 18411136935353240571
5104073 3 18266741281369621474
7062679 117 18341894121495265503

>  <PUBCHEM_SHAPE_MULTIPOLES>
335.22
13.61
1.83
0.69
0
0
-0.08
0
-1.87
0
-0.09
0
0
-0.86

>  <PUBCHEM_SHAPE_SELFOVERLAP>
687.263

>  <PUBCHEM_SHAPE_VOLUME>
192.6

>  <PUBCHEM_COORDINATE_TYPE>
2
5
10

$$$$
13739
 OpenBabel11092011363D

 32 32  0  0  0  0  0  0  0  0999 V2000
    3.5844   -0.0957    0.1288 O   0  0  0  0  0  0  0  0  0  0  0  0
   -3.5178    0.2583   -0.5136 O   0  0  0  0  0  0  0  0  0  0  0  0
    2.8958   -2.2922    0.1329 O   0  0  0  0  0  0  0  0  0  0  0  0
   -2.9494    2.1624    0.6485 O   0  0  0  0  0  0  0  0  0  0  0  0
    6.4769   -1.0547   -1.8671 O   0  0  0  0  0  0  0  0  0  0  0  0
   -5.1579    2.0757    0.8495 O   0  0  0  0  0  0  0  0  0  0  0  0
    1.2904   -0.5293    0.1305 C   0  0  0  0  0  0  0  0  0  0  0  0
   -1.2905    0.5298    0.1314 C   0  0  0  0  0  0  0  0  0  0  0  0
    0.1866   -1.3821    0.1311 C   0  0  0  0  0  0  0  0  0  0  0  0
   -1.1039   -0.8526    0.1315 C   0  0  0  0  0  0  0  0  0  0  0  0
    1.1037    0.8530    0.1304 C   0  0  0  0  0  0  0  0  0  0  0  0
   -0.1867    1.3826    0.1310 C   0  0  0  0  0  0  0  0  0  0  0  0
    2.6356   -1.0816    0.1313 C   0  0  0  0  0  0  0  0  0  0  0  0
   -2.6356    1.0817    0.1316 C   0  0  0  0  0  0  0  0  0  0  0  0
    4.4833   -0.0655   -0.9850 C   0  0  0  0  0  0  0  0  0  0  0  0
   -4.6330    0.8827   -1.1586 C   0  0  0  0  0  0  0  0  0  0  0  0
    5.5746   -1.0961   -0.7683 C   0  0  0  0  0  0  0  0  0  0  0  0
   -5.6971    1.1875   -0.1220 C   0  0  0  0  0  0  0  0  0  0  0  0
    0.3104   -2.4619    0.1314 H   0  0  0  0  0  0  0  0  0  0  0  0
   -1.9332   -1.5543    0.1317 H   0  0  0  0  0  0  0  0  0  0  0  0
    1.9330    1.5547    0.1300 H   0  0  0  0  0  0  0  0  0  0  0  0
   -0.3105    2.4624    0.1308 H   0  0  0  0  0  0  0  0  0  0  0  0
    3.9329   -0.2922   -1.9045 H   0  0  0  0  0  0  0  0  0  0  0  0
    4.9203    0.9373   -1.0534 H   0  0  0  0  0  0  0  0  0  0  0  0
   -4.3049    1.8087   -1.6430 H   0  0  0  0  0  0  0  0  0  0  0  0
   -5.0314    0.1914   -1.9099 H   0  0  0  0  0  0  0  0  0  0  0  0
    5.1618   -2.1055   -0.6852 H   0  0  0  0  0  0  0  0  0  0  0  0
    6.1492   -0.8692    0.1346 H   0  0  0  0  0  0  0  0  0  0  0  0
   -6.0241    0.2754    0.3846 H   0  0  0  0  0  0  0  0  0  0  0  0
   -6.5650    1.6753   -0.5765 H   0  0  0  0  0  0  0  0  0  0  0  0
    5.9726   -1.2745   -2.6690 H   0  0  0  0  0  0  0  0  0  0  0  0
   -4.8600    2.8742    0.3812 H   0  0  0  0  0  0  0  0  0  0  0  0
  1 13  1  0  0  0  0
  1 15  1  0  0  0  0
  2 14  1  0  0  0  0
  2 16  1  0  0  0  0
  3 13  2  0  0  0  0
  4 14  2  0  0  0  0
  5 17  1  0  0  0  0
  5 31  1  0  0  0  0
  6 18  1  0  0  0  0
  6 32  1  0  0  0  0
  7  9  2  0  0  0  0
  7 11  1  0  0  0  0
  7 13  1  0  0  0  0
  8 10  2  0  0  0  0
  8 12  1  0  0  0  0
  8 14  1  0  0  0  0
  9 10  1  0  0  0  0
  9 19  1  0  0  0  0
 10 20  1  0  0  0  0
 11 12  2  0  0  0  0
 11 21  1  0  0  0  0
 12 22  1  0  0  0  0
 15 17  1  0  0  0  0
 15 23  1  0  0  0  0
 15 24  1  0  0  0  0
 16 18  1  0  0  0  0
 16 25  1  0  0  0  0
 16 26  1  0  0  0  0
 17 27  1  0  0  0  0
 17 28  1  0  0  0  0
 18 29  1  0  0  0  0
 18 30  1  0  0  0  0
M  END
>  <PUBCHEM_COMPOUND_CID>
13739

>  <PUBCHEM_CONFORMER_RMSD>
0.8

>  <PUBCHEM_CONFORMER_DIVERSEORDER>
1
57
49
30
42
33
44
14
53
22
19
10
12
45
3
41
11
32
40
15
36
55
29
9
38
4
58
17
37
43
52
24
51
35
20
56
31
39
16
2
21
23
28
34
26
18
25
5
46
47
6
48
8
13
50
7
27
54

>  <PUBCHEM_MMFF94_PARTIAL_CHARGES>
24
1 -0.43
10 -0.15
11 -0.15
12 -0.15
13 0.63
14 0.63
15 0.28
16 0.28
17 0.28
18 0.28
19 0.15
2 -0.43
20 0.15
21 0.15
22 0.15
3 -0.57
31 0.4
32 0.4
4 -0.57
5 -0.68
6 -0.68
7 0.09
8 0.09
9 -0.15

>  <PUBCHEM_EFFECTIVE_ROTOR_COUNT>
8

>  <PUBCHEM_PHARMACOPHORE_FEATURES>
7
1 3 acceptor
1 4 acceptor
1 5 acceptor
1 5 donor
1 6 acceptor
1 6 donor
6 7 8 9 10 11 12 rings

>  <PUBCHEM_HEAVY_ATOM_COUNT>
18

>  <PUBCHEM_ATOM_DEF_STEREO_COUNT>
0

>  <PUBCHEM_ATOM_UDEF_STEREO_COUNT>
0

>  <PUBCHEM_BOND_DEF_STEREO_COUNT>
0

>  <PUBCHEM_BOND_UDEF_STEREO_COUNT>
0

>  <PUBCHEM_ISOTOPIC_ATOM_COUNT>
0

>  <PUBCHEM_COMPONENT_COUNT>
1

>  <PUBCHEM_CACTVS_TAUTO_COUNT>
1

>  <PUBCHEM_CONFORMER_ID>
000035AB00000001

>  <PUBCHEM_MMFF94_ENERGY>
44.2295

>  <PUBCHEM_FEATURE_SELFOVERLAP>
35.523

>  <PUBCHEM_SHAPE_FINGERPRINT>
10968037 39 18410012152543713039
11089746 13 12540695946557521839
11806522 49 18410009918986535353
12236239 1 18410855447243259972
13533116 47 16660916683113605170
13862211 1 18410006628598832378
14251718 22 18411136939420945249
14251732 16 18410855494493175089
14528608 73 18409733958879929100
14787075 74 18409729560226607264
15196674 1 18338516313804112001
17834072 33 18412824698380719020
19489759 90 14418129604479230181
200 152 18412260623910614371
20645477 70 18199752449496498934
21267235 1 18412550889973548114
221490 88 18263928916185329587
23272321 79 18409451383816681488
23402539 116 18335415751807977061
23402655 69 18339074883518801269
23559900 14 18262797501097503721
34797466 226 17203614826284060588
350125 39 18411983563781164433
3545911 37 18410577275887755602
4325135 7 18410855468718096782
4340502 62 16732706042963078794
4463277 17 18412265021635592889
474 4 17676779746965951636
474229 33 18411136935353240571
5104073 3 18266741281369621474
7062679 117 18341894121495265503

>  <PUBCHEM_SHAPE_MULTIPOLES>
335.22
13.61
1.83
0.69
0
0
-0.08
0
-1.87
0
-0.09
0
0
-0.86

>  <PUBCHEM_SHAPE_SELFOVERLAP>
687.263

>  <PUBCHEM_SHAPE_VOLUME>
192.6

>  <PUBCHEM_COORDINATE_TYPE>
2
5
10

$$$$
13739
 OpenBabel11092011363D

 32 32  0  0  0  0  0  0  0  0999 V2000
    2.6843   -2.2870    0.7769 O   0  0  0  0  0  0  0  0  0  0  0  0
   -3.5178    0.2583   -0.5136 O   0  0  0  0  0  0  0  0  0  0  0  0
    3.6183   -0.5333   -0.3854 O   0  0  0  0  0  0  0  0  0  0  0  0
   -2.9494    2.1624    0.6485 O   0  0  0  0  0  0  0  0  0  0  0  0
    3.6665   -1.8430    4.2566 O   0  0  0  0  0  0  0  0  0  0  0  0
   -5.3726    2.0334   -1.6359 O   0  0  0  0  0  0  0  0  0  0  0  0
    1.2904   -0.5293    0.1305 C   0  0  0  0  0  0  0  0  0  0  0  0
   -1.2905    0.5298    0.1314 C   0  0  0  0  0  0  0  0  0  0  0  0
    0.1866   -1.3821    0.1311 C   0  0  0  0  0  0  0  0  0  0  0  0
   -1.1039   -0.8526    0.1315 C   0  0  0  0  0  0  0  0  0  0  0  0
    1.1037    0.8530    0.1304 C   0  0  0  0  0  0  0  0  0  0  0  0
   -0.1867    1.3826    0.1310 C   0  0  0  0  0  0  0  0  0  0  0  0
    2.6356   -1.0816    0.1313 C   0  0  0  0  0  0  0  0  0  0  0  0
   -2.6356    1.0817    0.1316 C   0  0  0  0  0  0  0  0  0  0  0  0
    3.5346   -2.3720    1.9255 C   0  0  0  0  0  0  0  0  0  0  0  0
   -4.8783    0.2920   -0.0693 C   0  0  0  0  0  0  0  0  0  0  0  0
    2.8154   -1.7734    3.1190 C   0  0  0  0  0  0  0  0  0  0  0  0
   -5.4251    1.6941   -0.2555 C   0  0  0  0  0  0  0  0  0  0  0  0
    0.3104   -2.4619    0.1314 H   0  0  0  0  0  0  0  0  0  0  0  0
   -1.9332   -1.5543    0.1317 H   0  0  0  0  0  0  0  0  0  0  0  0
    1.9330    1.5547    0.1300 H   0  0  0  0  0  0  0  0  0  0  0  0
   -0.3105    2.4624    0.1308 H   0  0  0  0  0  0  0  0  0  0  0  0
    3.7768   -3.4217    2.1235 H   0  0  0  0  0  0  0  0  0  0  0  0
    4.4546   -1.8126    1.7206 H   0  0  0  0  0  0  0  0  0  0  0  0
   -5.4714   -0.4223   -0.6504 H   0  0  0  0  0  0  0  0  0  0  0  0
   -4.9039    0.0195    0.9919 H   0  0  0  0  0  0  0  0  0  0  0  0
    1.8866   -2.3083    3.3369 H   0  0  0  0  0  0  0  0  0  0  0  0
    2.5878   -0.7175    2.9458 H   0  0  0  0  0  0  0  0  0  0  0  0
   -4.8335    2.4236    0.3044 H   0  0  0  0  0  0  0  0  0  0  0  0
   -6.4694    1.7582    0.0656 H   0  0  0  0  0  0  0  0  0  0  0  0
    3.8553   -2.7821    4.4244 H   0  0  0  0  0  0  0  0  0  0  0  0
   -5.8914    1.3682   -2.1197 H   0  0  0  0  0  0  0  0  0  0  0  0
  1 13  1  0  0  0  0
  1 15  1  0  0  0  0
  2 14  1  0  0  0  0
  2 16  1  0  0  0  0
  3 13  2  0  0  0  0
  4 14  2  0  0  0  0
  5 17  1  0  0  0  0
  5 31  1  0  0  0  0
  6 18  1  0  0  0  0
  6 32  1  0  0  0  0
  7  9  2  0  0  0  0
  7 11  1  0  0  0  0
  7 13  1  0  0  0  0
  8 10  2  0  0  0  0
  8 12  1  0  0  0  0
  8 14  1  0  0  0  0
  9 10  1  0  0  0  0
  9 19  1  0  0  0  0
 10 20  1  0  0  0  0
 11 12  2  0  0  0  0
 11 21  1  0  0  0  0
 12 22  1  0  0  0  0
 15 17  1  0  0  0  0
 15 23  1  0  0  0  0
 15 24  1  0  0  0  0
 16 18  1  0  0  0  0
 16 25  1  0  0  0  0
 16 26  1  0  0  0  0
 17 27  1  0  0  0  0
 17 28  1  0  0  0  0
 18 29  1  0  0  0  0
 18 30  1  0  0  0  0
M  END
>  <PUBCHEM_COMPOUND_CID>
13739

>  <PUBCHEM_CONFORMER_RMSD>
0.8

>  <PUBCHEM_CONFORMER_DIVERSEORDER>
1
57
49
30
42
33
44
14
53
22
19
10
12
45
3
41
11
32
40
15
36
55
29
9
38
4
58
17
37
43
52
24
51
35
20
56
31
39
16
2
21
23
28
34
26
18
25
5
46
47
6
48
8
13
50
7
27
54

>  <PUBCHEM_MMFF94_PARTIAL_CHARGES>
24
1 -0.43
10 -0.15
11 -0.15
12 -0.15
13 0.63
14 0.63
15 0.28
16 0.28
17 0.28
18 0.28
19 0.15
2 -0.43
20 0.15
21 0.15
22 0.15
3 -0.57
31 0.4
32 0.4
4 -0.57
5 -0.68
6 -0.68
7 0.09
8 0.09
9 -0.15

>  <PUBCHEM_EFFECTIVE_ROTOR_COUNT>
8

>  <PUBCHEM_PHARMACOPHORE_FEATURES>
7
1 3 acceptor
1 4 acceptor
1 5 acceptor
1 5 donor
1 6 acceptor
1 6 donor
6 7 8 9 10 11 12 rings

>  <PUBCHEM_HEAVY_ATOM_COUNT>
18

>  <PUBCHEM_ATOM_DEF_STEREO_COUNT>
0

>  <PUBCHEM_ATOM_UDEF_STEREO_COUNT>
0

>  <PUBCHEM_BOND_DEF_STEREO_COUNT>
0

>  <PUBCHEM_BOND_UDEF_STEREO_COUNT>
0

>  <PUBCHEM_ISOTOPIC_ATOM_COUNT>
0

>  <PUBCHEM_COMPONENT_COUNT>
1

>  <PUBCHEM_CACTVS_TAUTO_COUNT>
1

>  <PUBCHEM_CONFORMER_ID>
000035AB00000001

>  <PUBCHEM_MMFF94_ENERGY>
44.2295

>  <PUBCHEM_FEATURE_SELFOVERLAP>
35.523

>  <PUBCHEM_SHAPE_FINGERPRINT>
10968037 39 18410012152543713039
11089746 13 12540695946557521839
11806522 49 18410009918986535353
12236239 1 18410855447243259972
13533116 47 16660916683113605170
13862211 1 18410006628598832378
14251718 22 18411136939420945249
14251732 16 18410855494493175089
14528608 73 18409733958879929100
14787075 74 18409729560226607264
15196674 1 18338516313804112001
17834072 33 18412824698380719020
19489759 90 14418129604479230181
200 152 18412260623910614371
20645477 70 18199752449496498934
21267235 1 18412550889973548114
221490 88 18263928916185329587
23272321 79 18409451383816681488
23402539 116 18335415751807977061
23402655 69 18339074883518801269
23559900 14 18262797501097503721
34797466 226 17203614826284060588
350125 39 18411983563781164433
3545911 37 18410577275887755602
4325135 7 18410855468718096782
4340502 62 16732706042963078794
4463277 17 18412265021635592889
474 4 17676779746965951636
474229 33 18411136935353240571
5104073 3 18266741281369621474
7062679 117 18341894121495265503

>  <PUBCHEM_SHAPE_MULTIPOLES>
335.22
13.61
1.83
0.69
0
0
-0.08
0
-1.87
0
-0.09
0
0
-0.86

>  <PUBCHEM_SHAPE_SELFOVERLAP>
687.263

>  <PUBCHEM_SHAPE_VOLUME>
192.6

>  <PUBCHEM_COORDINATE_TYPE>
2
5
10

$$$$
13739
 OpenBabel11092011363D

 32 32  0  0  0  0  0  0  0  0999 V2000
    2.6843   -2.2870    0.7769 O   0  0  0  0  0  0  0  0  0  0  0  0
   -3.5178    0.2583   -0.5136 O   0  0  0  0  0  0  0  0  0  0  0  0
    3.6183   -0.5333   -0.3854 O   0  0  0  0  0  0  0  0  0  0  0  0
   -2.9494    2.1624    0.6485 O   0  0  0  0  0  0  0  0  0  0  0  0
    0.8904   -3.8161   -0.7119 O   0  0  0  0  0  0  0  0  0  0  0  0
   -5.2185   -1.4932    2.1900 O   0  0  0  0  0  0  0  0  0  0  0  0
    1.2904   -0.5293    0.1305 C   0  0  0  0  0  0  0  0  0  0  0  0
   -1.2905    0.5298    0.1314 C   0  0  0  0  0  0  0  0  0  0  0  0
    0.1866   -1.3821    0.1311 C   0  0  0  0  0  0  0  0  0  0  0  0
   -1.1039   -0.8526    0.1315 C   0  0  0  0  0  0  0  0  0  0  0  0
    1.1037    0.8530    0.1304 C   0  0  0  0  0  0  0  0  0  0  0  0
   -0.1867    1.3826    0.1310 C   0  0  0  0  0  0  0  0  0  0  0  0
    2.6356   -1.0816    0.1313 C   0  0  0  0  0  0  0  0  0  0  0  0
   -2.6356    1.0817    0.1316 C   0  0  0  0  0  0  0  0  0  0  0  0
    3.1353   -3.4116    0.0146 C   0  0  0  0  0  0  0  0  0  0  0  0
   -4.6304   -0.2225    0.2483 C   0  0  0  0  0  0  0  0  0  0  0  0
    2.2173   -3.6017   -1.1775 C   0  0  0  0  0  0  0  0  0  0  0  0
   -4.1130   -1.0016    1.4420 C   0  0  0  0  0  0  0  0  0  0  0  0
    0.3104   -2.4619    0.1314 H   0  0  0  0  0  0  0  0  0  0  0  0
   -1.9332   -1.5543    0.1317 H   0  0  0  0  0  0  0  0  0  0  0  0
    1.9330    1.5547    0.1300 H   0  0  0  0  0  0  0  0  0  0  0  0
   -0.3105    2.4624    0.1308 H   0  0  0  0  0  0  0  0  0  0  0  0
    4.1602   -3.2329   -0.3282 H   0  0  0  0  0  0  0  0  0  0  0  0
    3.1096   -4.3004    0.6555 H   0  0  0  0  0  0  0  0  0  0  0  0
   -5.2361    0.6249    0.5872 H   0  0  0  0  0  0  0  0  0  0  0  0
   -5.2327   -0.8772   -0.3918 H   0  0  0  0  0  0  0  0  0  0  0  0
    2.5229   -4.4574   -1.7863 H   0  0  0  0  0  0  0  0  0  0  0  0
    2.2026   -2.7045   -1.8033 H   0  0  0  0  0  0  0  0  0  0  0  0
   -3.5081   -0.3652    2.0936 H   0  0  0  0  0  0  0  0  0  0  0  0
   -3.5144   -1.8611    1.1251 H   0  0  0  0  0  0  0  0  0  0  0  0
    0.8966   -4.6239   -0.1705 H   0  0  0  0  0  0  0  0  0  0  0  0
   -5.7524   -2.0449    1.5931 H   0  0  0  0  0  0  0  0  0  0  0  0
  1 13  1  0  0  0  0
  1 15  1  0  0  0  0
  2 14  1  0  0  0  0
  2 16  1  0  0  0  0
  3 13  2  0  0  0  0
  4 14  2  0  0  0  0
  5 17  1  0  0  0  0
  5 31  1  0  0  0  0
  6 18  1  0  0  0  0
  6 32  1  0  0  0  0
  7  9  2  0  0  0  0
  7 11  1  0  0  0  0
  7 13  1  0  0  0  0
  8 10  2  0  0  0  0
  8 12  1  0  0  0  0
  8 14  1  0  0  0  0
  9 10  1  0  0  0  0
  9 19  1  0  0  0  0
 10 20  1  0  0  0  0
 11 12  2  0  0  0  0
 11 21  1  0  0  0  0
 12 22  1  0  0  0  0
 15 17  1  0  0  0  0
 15 23  1  0  0  0  0
 15 24  1  0  0  0  0
 16 18  1  0  0  0  0
 16 25  1  0  0  0  0
 16 26  1  0  0  0  0
 17 27  1  0  0  0  0
 17 28  1  0  0  0  0
 18 29  1  0  0  0  0
 18 30  1  0  0  0  0
M  END
>  <PUBCHEM_COMPOUND_CID>
13739

>  <PUBCHEM_CONFORMER_RMSD>
0.8

>  <PUBCHEM_CONFORMER_DIVERSEORDER>
1
57
49
30
42
33
44
14
53
22
19
10
12
45
3
41
11
32
40
15
36
55
29
9
38
4
58
17
37
43
52
24
51
35
20
56
31
39
16
2
21
23
28
34
26
18
25
5
46
47
6
48
8
13
50
7
27
54

>  <PUBCHEM_MMFF94_PARTIAL_CHARGES>
24
1 -0.43
10 -0.15
11 -0.15
12 -0.15
13 0.63
14 0.63
15 0.28
16 0.28
17 0.28
18 0.28
19 0.15
2 -0.43
20 0.15
21 0.15
22 0.15
3 -0.57
31 0.4
32 0.4
4 -0.57
5 -0.68
6 -0.68
7 0.09
8 0.09
9 -0.15

>  <PUBCHEM_EFFECTIVE_ROTOR_COUNT>
8

>  <PUBCHEM_PHARMACOPHORE_FEATURES>
7
1 3 acceptor
1 4 acceptor
1 5 acceptor
1 5 donor
1 6 acceptor
1 6 donor
6 7 8 9 10 11 12 rings

>  <PUBCHEM_HEAVY_ATOM_COUNT>
18

>  <PUBCHEM_ATOM_DEF_STEREO_COUNT>
0

>  <PUBCHEM_ATOM_UDEF_STEREO_COUNT>
0

>  <PUBCHEM_BOND_DEF_STEREO_COUNT>
0

>  <PUBCHEM_BOND_UDEF_STEREO_COUNT>
0

>  <PUBCHEM_ISOTOPIC_ATOM_COUNT>
0

>  <PUBCHEM_COMPONENT_COUNT>
1

>  <PUBCHEM_CACTVS_TAUTO_COUNT>
1

>  <PUBCHEM_CONFORMER_ID>
000035AB00000001

>  <PUBCHEM_MMFF94_ENERGY>
44.2295

>  <PUBCHEM_FEATURE_SELFOVERLAP>
35.523

>  <PUBCHEM_SHAPE_FINGERPRINT>
10968037 39 18410012152543713039
11089746 13 12540695946557521839
11806522 49 18410009918986535353
12236239 1 18410855447243259972
13533116 47 16660916683113605170
13862211 1 18410006628598832378
14251718 22 18411136939420945249
14251732 16 18410855494493175089
14528608 73 18409733958879929100
14787075 74 18409729560226607264
15196674 1 18338516313804112001
17834072 33 18412824698380719020
19489759 90 14418129604479230181
200 152 18412260623910614371
20645477 70 18199752449496498934
21267235 1 18412550889973548114
221490 88 18263928916185329587
23272321 79 18409451383816681488
23402539 116 18335415751807977061
23402655 69 18339074883518801269
23559900 14 18262797501097503721
34797466 226 17203614826284060588
350125 39 18411983563781164433
3545911 37 18410577275887755602
4325135 7 18410855468718096782
4340502 62 16732706042963078794
4463277 17 18412265021635592889
474 4 17676779746965951636
474229 33 18411136935353240571
5104073 3 18266741281369621474
7062679 117 18341894121495265503

>  <PUBCHEM_SHAPE_MULTIPOLES>
335.22
13.61
1.83
0.69
0
0
-0.08
0
-1.87
0
-0.09
0
0
-0.86

>  <PUBCHEM_SHAPE_SELFOVERLAP>
687.263

>  <PUBCHEM_SHAPE_VOLUME>
192.6

>  <PUBCHEM_COORDINATE_TYPE>
2
5
10

$$$$
13739
 OpenBabel11092011363D

 32 32  0  0  0  0  0  0  0  0999 V2000
    2.6843   -2.2870    0.7769 O   0  0  0  0  0  0  0  0  0  0  0  0
   -3.5178    0.2583   -0.5136 O   0  0  0  0  0  0  0  0  0  0  0  0
    3.6183   -0.5333   -0.3854 O   0  0  0  0  0  0  0  0  0  0  0  0
   -2.9494    2.1624    0.6485 O   0  0  0  0  0  0  0  0  0  0  0  0
    1.9520   -4.5956   -0.6040 O   0  0  0  0  0  0  0  0  0  0  0  0
   -3.6787   -2.4191    0.2469 O   0  0  0  0  0  0  0  0  0  0  0  0
    1.2904   -0.5293    0.1305 C   0  0  0  0  0  0  0  0  0  0  0  0
   -1.2905    0.5298    0.1314 C   0  0  0  0  0  0  0  0  0  0  0  0
    0.1866   -1.3821    0.1311 C   0  0  0  0  0  0  0  0  0  0  0  0
   -1.1039   -0.8526    0.1315 C   0  0  0  0  0  0  0  0  0  0  0  0
    1.1037    0.8530    0.1304 C   0  0  0  0  0  0  0  0  0  0  0  0
   -0.1867    1.3826    0.1310 C   0  0  0  0  0  0  0  0  0  0  0  0
    2.6356   -1.0816    0.1313 C   0  0  0  0  0  0  0  0  0  0  0  0
   -2.6356    1.0817    0.1316 C   0  0  0  0  0  0  0  0  0  0  0  0
    3.6740   -3.2203    0.3311 C   0  0  0  0  0  0  0  0  0  0  0  0
   -4.6304   -0.2225    0.2483 C   0  0  0  0  0  0  0  0  0  0  0  0
    3.1665   -3.9231   -0.9134 C   0  0  0  0  0  0  0  0  0  0  0  0
   -4.1789   -1.3948    1.0977 C   0  0  0  0  0  0  0  0  0  0  0  0
    0.3104   -2.4619    0.1314 H   0  0  0  0  0  0  0  0  0  0  0  0
   -1.9332   -1.5543    0.1317 H   0  0  0  0  0  0  0  0  0  0  0  0
    1.9330    1.5547    0.1300 H   0  0  0  0  0  0  0  0  0  0  0  0
   -0.3105    2.4624    0.1308 H   0  0  0  0  0  0  0  0  0  0  0  0
    4.6037   -2.6868    0.1058 H   0  0  0  0  0  0  0  0  0  0  0  0
    3.8507   -3.9496    1.1300 H   0  0  0  0  0  0  0  0  0  0  0  0
   -5.0104    0.5806    0.8889 H   0  0  0  0  0  0  0  0  0  0  0  0
   -5.4138   -0.5453   -0.4468 H   0  0  0  0  0  0  0  0  0  0  0  0
    3.8917   -4.6522   -1.2857 H   0  0  0  0  0  0  0  0  0  0  0  0
    2.9471   -3.2006   -1.7050 H   0  0  0  0  0  0  0  0  0  0  0  0
   -5.0108   -1.8015    1.6792 H   0  0  0  0  0  0  0  0  0  0  0  0
   -3.3742   -1.1034    1.7798 H   0  0  0  0  0  0  0  0  0  0  0  0
    2.1479   -5.2518    0.0865 H   0  0  0  0  0  0  0  0  0  0  0  0
   -2.9500   -2.0374   -0.2718 H   0  0  0  0  0  0  0  0  0  0  0  0
  1 13  1  0  0  0  0
  1 15  1  0  0  0  0
  2 14  1  0  0  0  0
  2 16  1  0  0  0  0
  3 13  2  0  0  0  0
  4 14  2  0  0  0  0
  5 17  1  0  0  0  0
  5 31  1  0  0  0  0
  6 18  1  0  0  0  0
  6 32  1  0  0  0  0
  7  9  2  0  0  0  0
  7 11  1  0  0  0  0
  7 13  1  0  0  0  0
  8 10  2  0  0  0  0
  8 12  1  0  0  0  0
  8 14  1  0  0  0  0
  9 10  1  0  0  0  0
  9 19  1  0  0  0  0
 10 20  1  0  0  0  0
 11 12  2  0  0  0  0
 11 21  1  0  0  0  0
 12 22  1  0  0  0  0
 15 17  1  0  0  0  0
 15 23  1  0  0  0  0
 15 24  1  0  0  0  0
 16 18  1  0  0  0  0
 16 25  1  0  0  0  0
 16 26  1  0  0  0  0
 17 27  1  0  0  0  0
 17 28  1  0  0  0  0
 18 29  1  0  0  0  0
 18 30  1  0  0  0  0
M  END
>  <PUBCHEM_COMPOUND_CID>
13739

>  <PUBCHEM_CONFORMER_RMSD>
0.8

>  <PUBCHEM_CONFORMER_DIVERSEORDER>
1
57
49
30
42
33
44
14
53
22
19
10
12
45
3
41
11
32
40
15
36
55
29
9
38
4
58
17
37
43
52
24
51
35
20
56
31
39
16
2
21
23
28
34
26
18
25
5
46
47
6
48
8
13
50
7
27
54

>  <PUBCHEM_MMFF94_PARTIAL_CHARGES>
24
1 -0.43
10 -0.15
11 -0.15
12 -0.15
13 0.63
14 0.63
15 0.28
16 0.28
17 0.28
18 0.28
19 0.15
2 -0.43
20 0.15
21 0.15
22 0.15
3 -0.57
31 0.4
32 0.4
4 -0.57
5 -0.68
6 -0.68
7 0.09
8 0.09
9 -0.15

>  <PUBCHEM_EFFECTIVE_ROTOR_COUNT>
8

>  <PUBCHEM_PHARMACOPHORE_FEATURES>
7
1 3 acceptor
1 4 acceptor
1 5 acceptor
1 5 donor
1 6 acceptor
1 6 donor
6 7 8 9 10 11 12 rings

>  <PUBCHEM_HEAVY_ATOM_COUNT>
18

>  <PUBCHEM_ATOM_DEF_STEREO_COUNT>
0

>  <PUBCHEM_ATOM_UDEF_STEREO_COUNT>
0

>  <PUBCHEM_BOND_DEF_STEREO_COUNT>
0

>  <PUBCHEM_BOND_UDEF_STEREO_COUNT>
0

>  <PUBCHEM_ISOTOPIC_ATOM_COUNT>
0

>  <PUBCHEM_COMPONENT_COUNT>
1

>  <PUBCHEM_CACTVS_TAUTO_COUNT>
1

>  <PUBCHEM_CONFORMER_ID>
000035AB00000001

>  <PUBCHEM_MMFF94_ENERGY>
44.2295

>  <PUBCHEM_FEATURE_SELFOVERLAP>
35.523

>  <PUBCHEM_SHAPE_FINGERPRINT>
10968037 39 18410012152543713039
11089746 13 12540695946557521839
11806522 49 18410009918986535353
12236239 1 18410855447243259972
13533116 47 16660916683113605170
13862211 1 18410006628598832378
14251718 22 18411136939420945249
14251732 16 18410855494493175089
14528608 73 18409733958879929100
14787075 74 18409729560226607264
15196674 1 18338516313804112001
17834072 33 18412824698380719020
19489759 90 14418129604479230181
200 152 18412260623910614371
20645477 70 18199752449496498934
21267235 1 18412550889973548114
221490 88 18263928916185329587
23272321 79 18409451383816681488
23402539 116 18335415751807977061
23402655 69 18339074883518801269
23559900 14 18262797501097503721
34797466 226 17203614826284060588
350125 39 18411983563781164433
3545911 37 18410577275887755602
4325135 7 18410855468718096782
4340502 62 16732706042963078794
4463277 17 18412265021635592889
474 4 17676779746965951636
474229 33 18411136935353240571
5104073 3 18266741281369621474
7062679 117 18341894121495265503

>  <PUBCHEM_SHAPE_MULTIPOLES>
335.22
13.61
1.83
0.69
0
0
-0.08
0
-1.87
0
-0.09
0
0
-0.86

>  <PUBCHEM_SHAPE_SELFOVERLAP>
687.263

>  <PUBCHEM_SHAPE_VOLUME>
192.6

>  <PUBCHEM_COORDINATE_TYPE>
2
5
10

$$$$
13739
 OpenBabel11092011363D

 32 32  0  0  0  0  0  0  0  0999 V2000
    2.6843   -2.2870    0.7769 O   0  0  0  0  0  0  0  0  0  0  0  0
   -2.6812    2.2971   -0.4954 O   0  0  0  0  0  0  0  0  0  0  0  0
    3.6183   -0.5333   -0.3854 O   0  0  0  0  0  0  0  0  0  0  0  0
   -3.6208    0.5262    0.6360 O   0  0  0  0  0  0  0  0  0  0  0  0
    4.4113   -4.4694   -1.5734 O   0  0  0  0  0  0  0  0  0  0  0  0
   -5.4461    1.9674   -2.8442 O   0  0  0  0  0  0  0  0  0  0  0  0
    1.2904   -0.5293    0.1305 C   0  0  0  0  0  0  0  0  0  0  0  0
   -1.2905    0.5298    0.1314 C   0  0  0  0  0  0  0  0  0  0  0  0
    0.1866   -1.3821    0.1311 C   0  0  0  0  0  0  0  0  0  0  0  0
   -1.1039   -0.8526    0.1315 C   0  0  0  0  0  0  0  0  0  0  0  0
    1.1037    0.8530    0.1304 C   0  0  0  0  0  0  0  0  0  0  0  0
   -0.1867    1.3826    0.1310 C   0  0  0  0  0  0  0  0  0  0  0  0
    2.6356   -1.0816    0.1313 C   0  0  0  0  0  0  0  0  0  0  0  0
   -2.6356    1.0817    0.1316 C   0  0  0  0  0  0  0  0  0  0  0  0
    3.6740   -3.2203    0.3311 C   0  0  0  0  0  0  0  0  0  0  0  0
   -3.9116    2.6485   -1.1376 C   0  0  0  0  0  0  0  0  0  0  0  0
    3.4380   -3.5295   -1.1348 C   0  0  0  0  0  0  0  0  0  0  0  0
   -4.2322    1.6096   -2.1949 C   0  0  0  0  0  0  0  0  0  0  0  0
    0.3104   -2.4619    0.1314 H   0  0  0  0  0  0  0  0  0  0  0  0
   -1.9332   -1.5543    0.1317 H   0  0  0  0  0  0  0  0  0  0  0  0
    1.9330    1.5547    0.1300 H   0  0  0  0  0  0  0  0  0  0  0  0
   -0.3105    2.4624    0.1308 H   0  0  0  0  0  0  0  0  0  0  0  0
    4.6711   -2.7872    0.4655 H   0  0  0  0  0  0  0  0  0  0  0  0
    3.5849   -4.1351    0.9282 H   0  0  0  0  0  0  0  0  0  0  0  0
   -4.7150    2.6875   -0.3942 H   0  0  0  0  0  0  0  0  0  0  0  0
   -3.7905    3.6320   -1.6057 H   0  0  0  0  0  0  0  0  0  0  0  0
    3.5105   -2.6289   -1.7510 H   0  0  0  0  0  0  0  0  0  0  0  0
    2.4545   -3.9854   -1.2820 H   0  0  0  0  0  0  0  0  0  0  0  0
   -4.3561    0.6197   -1.7474 H   0  0  0  0  0  0  0  0  0  0  0  0
   -3.4467    1.5628   -2.9555 H   0  0  0  0  0  0  0  0  0  0  0  0
    5.2861   -4.0595   -1.4613 H   0  0  0  0  0  0  0  0  0  0  0  0
   -5.3233    2.8542   -3.2241 H   0  0  0  0  0  0  0  0  0  0  0  0
  1 13  1  0  0  0  0
  1 15  1  0  0  0  0
  2 14  1  0  0  0  0
  2 16  1  0  0  0  0
  3 13  2  0  0  0  0
  4 14  2  0  0  0  0
  5 17  1  0  0  0  0
  5 31  1  0  0  0  0
  6 18  1  0  0  0  0
  6 32  1  0  0  0  0
  7  9  2  0  0  0  0
  7 11  1  0  0  0  0
  7 13  1  0  0  0  0
  8 10  2  0  0  0  0
  8 12  1  0  0  0  0
  8 14  1  0  0  0  0
  9 10  1  0  0  0  0
  9 19  1  0  0  0  0
 10 20  1  0  0  0  0
 11 12  2  0  0  0  0
 11 21  1  0  0  0  0
 12 22  1  0  0  0  0
 15 17  1  0  0  0  0
 15 23  1  0  0  0  0
 15 24  1  0  0  0  0
 16 18  1  0  0  0  0
 16 25  1  0  0  0  0
 16 26  1  0  0  0  0
 17 27  1  0  0  0  0
 17 28  1  0  0  0  0
 18 29  1  0  0  0  0
 18 30  1  0  0  0  0
M  END
>  <PUBCHEM_COMPOUND_CID>
13739

>  <PUBCHEM_CONFORMER_RMSD>
0.8

>  <PUBCHEM_CONFORMER_DIVERSEORDER>
1
57
49
30
42
33
44
14
53
22
19
10
12
45
3
41
11
32
40
15
36
55
29
9
38
4
58
17
37
43
52
24
51
35
20
56
31
39
16
2
21
23
28
34
26
18
25
5
46
47
6
48
8
13
50
7
27
54

>  <PUBCHEM_MMFF94_PARTIAL_CHARGES>
24
1 -0.43
10 -0.15
11 -0.15
12 -0.15
13 0.63
14 0.63
15 0.28
16 0.28
17 0.28
18 0.28
19 0.15
2 -0.43
20 0.15
21 0.15
22 0.15
3 -0.57
31 0.4
32 0.4
4 -0.57
5 -0.68
6 -0.68
7 0.09
8 0.09
9 -0.15

>  <PUBCHEM_EFFECTIVE_ROTOR_COUNT>
8

>  <PUBCHEM_PHARMACOPHORE_FEATURES>
7
1 3 acceptor
1 4 acceptor
1 5 acceptor
1 5 donor
1 6 acceptor
1 6 donor
6 7 8 9 10 11 12 rings

>  <PUBCHEM_HEAVY_ATOM_COUNT>
18

>  <PUBCHEM_ATOM_DEF_STEREO_COUNT>
0

>  <PUBCHEM_ATOM_UDEF_STEREO_COUNT>
0

>  <PUBCHEM_BOND_DEF_STEREO_COUNT>
0

>  <PUBCHEM_BOND_UDEF_STEREO_COUNT>
0

>  <PUBCHEM_ISOTOPIC_ATOM_COUNT>
0

>  <PUBCHEM_COMPONENT_COUNT>
1

>  <PUBCHEM_CACTVS_TAUTO_COUNT>
1

>  <PUBCHEM_CONFORMER_ID>
000035AB00000001

>  <PUBCHEM_MMFF94_ENERGY>
44.2295

>  <PUBCHEM_FEATURE_SELFOVERLAP>
35.523

>  <PUBCHEM_SHAPE_FINGERPRINT>
10968037 39 18410012152543713039
11089746 13 12540695946557521839
11806522 49 18410009918986535353
12236239 1 18410855447243259972
13533116 47 16660916683113605170
13862211 1 18410006628598832378
14251718 22 18411136939420945249
14251732 16 18410855494493175089
14528608 73 18409733958879929100
14787075 74 18409729560226607264
15196674 1 18338516313804112001
17834072 33 18412824698380719020
19489759 90 14418129604479230181
200 152 18412260623910614371
20645477 70 18199752449496498934
21267235 1 18412550889973548114
221490 88 18263928916185329587
23272321 79 18409451383816681488
23402539 116 18335415751807977061
23402655 69 18339074883518801269
23559900 14 18262797501097503721
34797466 226 17203614826284060588
350125 39 18411983563781164433
3545911 37 18410577275887755602
4325135 7 18410855468718096782
4340502 62 16732706042963078794
4463277 17 18412265021635592889
474 4 17676779746965951636
474229 33 18411136935353240571
5104073 3 18266741281369621474
7062679 117 18341894121495265503

>  <PUBCHEM_SHAPE_MULTIPOLES>
335.22
13.61
1.83
0.69
0
0
-0.08
0
-1.87
0
-0.09
0
0
-0.86

>  <PUBCHEM_SHAPE_SELFOVERLAP>
687.263

>  <PUBCHEM_SHAPE_VOLUME>
192.6

>  <PUBCHEM_COORDINATE_TYPE>
2
5
10

$$$$
13739
 OpenBabel11092011363D

 32 32  0  0  0  0  0  0  0  0999 V2000
    2.6843   -2.2870    0.7769 O   0  0  0  0  0  0  0  0  0  0  0  0
   -2.6184    2.4500    0.1343 O   0  0  0  0  0  0  0  0  0  0  0  0
    3.6183   -0.5333   -0.3854 O   0  0  0  0  0  0  0  0  0  0  0  0
   -3.6715    0.4029    0.1307 O   0  0  0  0  0  0  0  0  0  0  0  0
    2.4316   -5.0549   -1.5777 O   0  0  0  0  0  0  0  0  0  0  0  0
   -3.2361    3.3403   -3.3436 O   0  0  0  0  0  0  0  0  0  0  0  0
    1.2904   -0.5293    0.1305 C   0  0  0  0  0  0  0  0  0  0  0  0
   -1.2905    0.5298    0.1314 C   0  0  0  0  0  0  0  0  0  0  0  0
    0.1866   -1.3821    0.1311 C   0  0  0  0  0  0  0  0  0  0  0  0
   -1.1039   -0.8526    0.1315 C   0  0  0  0  0  0  0  0  0  0  0  0
    1.1037    0.8530    0.1304 C   0  0  0  0  0  0  0  0  0  0  0  0
   -0.1867    1.3826    0.1310 C   0  0  0  0  0  0  0  0  0  0  0  0
    2.6356   -1.0816    0.1313 C   0  0  0  0  0  0  0  0  0  0  0  0
   -2.6356    1.0817    0.1316 C   0  0  0  0  0  0  0  0  0  0  0  0
    3.1353   -3.4116    0.0146 C   0  0  0  0  0  0  0  0  0  0  0  0
   -3.2642    3.1077   -0.9611 C   0  0  0  0  0  0  0  0  0  0  0  0
    1.9881   -3.9274   -0.8326 C   0  0  0  0  0  0  0  0  0  0  0  0
   -2.6053    2.6744   -2.2564 C   0  0  0  0  0  0  0  0  0  0  0  0
    0.3104   -2.4619    0.1314 H   0  0  0  0  0  0  0  0  0  0  0  0
   -1.9332   -1.5543    0.1317 H   0  0  0  0  0  0  0  0  0  0  0  0
    1.9330    1.5547    0.1300 H   0  0  0  0  0  0  0  0  0  0  0  0
   -0.3105    2.4624    0.1308 H   0  0  0  0  0  0  0  0  0  0  0  0
    3.9671   -3.1062   -0.6293 H   0  0  0  0  0  0  0  0  0  0  0  0
    3.4716   -4.1909    0.7081 H   0  0  0  0  0  0  0  0  0  0  0  0
   -4.3267    2.8418   -0.9734 H   0  0  0  0  0  0  0  0  0  0  0  0
   -3.1536    4.1901   -0.8303 H   0  0  0  0  0  0  0  0  0  0  0  0
    1.6267   -3.1629   -1.5262 H   0  0  0  0  0  0  0  0  0  0  0  0
    1.1581   -4.2591   -0.2018 H   0  0  0  0  0  0  0  0  0  0  0  0
   -2.7042    1.5957   -2.4052 H   0  0  0  0  0  0  0  0  0  0  0  0
   -1.5442    2.9418   -2.2701 H   0  0  0  0  0  0  0  0  0  0  0  0
    3.1573   -4.7589   -2.1534 H   0  0  0  0  0  0  0  0  0  0  0  0
   -3.1511    4.2967   -3.1887 H   0  0  0  0  0  0  0  0  0  0  0  0
  1 13  1  0  0  0  0
  1 15  1  0  0  0  0
  2 14  1  0  0  0  0
  2 16  1  0  0  0  0
  3 13  2  0  0  0  0
  4 14  2  0  0  0  0
  5 17  1  0  0  0  0
  5 31  1  0  0  0  0
  6 18  1  0  0  0  0
  6 32  1  0  0  0  0
  7  9  2  0  0  0  0
  7 11  1  0  0  0  0
  7 13  1  0  0  0  0
  8 10  2  0  0  0  0
  8 12  1  0  0  0  0
  8 14  1  0  0  0  0
  9 10  1  0  0  0  0
  9 19  1  0  0  0  0
 10 20  1  0  0  0  0
 11 12  2  0  0  0  0
 11 21  1  0  0  0  0
 12 22  1  0  0  0  0
 15 17  1  0  0  0  0
 15 23  1  0  0  0  0
 15 24  1  0  0  0  0
 16 18  1  0  0  0  0
 16 25  1  0  0  0  0
 16 26  1  0  0  0  0
 17 27  1  0  0  0  0
 17 28  1  0  0  0  0
 18 29  1  0  0  0  0
 18 30  1  0  0  0  0
M  END
>  <PUBCHEM_COMPOUND_CID>
13739

>  <PUBCHEM_CONFORMER_RMSD>
0.8

>  <PUBCHEM_CONFORMER_DIVERSEORDER>
1
57
49
30
42
33
44
14
53
22
19
10
12
45
3
41
11
32
40
15
36
55
29
9
38
4
58
17
37
43
52
24
51
35
20
56
31
39
16
2
21
23
28
34
26
18
25
5
46
47
6
48
8
13
50
7
27
54

>  <PUBCHEM_MMFF94_PARTIAL_CHARGES>
24
1 -0.43
10 -0.15
11 -0.15
12 -0.15
13 0.63
14 0.63
15 0.28
16 0.28
17 0.28
18 0.28
19 0.15
2 -0.43
20 0.15
21 0.15
22 0.15
3 -0.57
31 0.4
32 0.4
4 -0.57
5 -0.68
6 -0.68
7 0.09
8 0.09
9 -0.15

>  <PUBCHEM_EFFECTIVE_ROTOR_COUNT>
8

>  <PUBCHEM_PHARMACOPHORE_FEATURES>
7
1 3 acceptor
1 4 acceptor
1 5 acceptor
1 5 donor
1 6 acceptor
1 6 donor
6 7 8 9 10 11 12 rings

>  <PUBCHEM_HEAVY_ATOM_COUNT>
18

>  <PUBCHEM_ATOM_DEF_STEREO_COUNT>
0

>  <PUBCHEM_ATOM_UDEF_STEREO_COUNT>
0

>  <PUBCHEM_BOND_DEF_STEREO_COUNT>
0

>  <PUBCHEM_BOND_UDEF_STEREO_COUNT>
0

>  <PUBCHEM_ISOTOPIC_ATOM_COUNT>
0

>  <PUBCHEM_COMPONENT_COUNT>
1

>  <PUBCHEM_CACTVS_TAUTO_COUNT>
1

>  <PUBCHEM_CONFORMER_ID>
000035AB00000001

>  <PUBCHEM_MMFF94_ENERGY>
44.2295

>  <PUBCHEM_FEATURE_SELFOVERLAP>
35.523

>  <PUBCHEM_SHAPE_FINGERPRINT>
10968037 39 18410012152543713039
11089746 13 12540695946557521839
11806522 49 18410009918986535353
12236239 1 18410855447243259972
13533116 47 16660916683113605170
13862211 1 18410006628598832378
14251718 22 18411136939420945249
14251732 16 18410855494493175089
14528608 73 18409733958879929100
14787075 74 18409729560226607264
15196674 1 18338516313804112001
17834072 33 18412824698380719020
19489759 90 14418129604479230181
200 152 18412260623910614371
20645477 70 18199752449496498934
21267235 1 18412550889973548114
221490 88 18263928916185329587
23272321 79 18409451383816681488
23402539 116 18335415751807977061
23402655 69 18339074883518801269
23559900 14 18262797501097503721
34797466 226 17203614826284060588
350125 39 18411983563781164433
3545911 37 18410577275887755602
4325135 7 18410855468718096782
4340502 62 16732706042963078794
4463277 17 18412265021635592889
474 4 17676779746965951636
474229 33 18411136935353240571
5104073 3 18266741281369621474
7062679 117 18341894121495265503

>  <PUBCHEM_SHAPE_MULTIPOLES>
335.22
13.61
1.83
0.69
0
0
-0.08
0
-1.87
0
-0.09
0
0
-0.86

>  <PUBCHEM_SHAPE_SELFOVERLAP>
687.263

>  <PUBCHEM_SHAPE_VOLUME>
192.6

>  <PUBCHEM_COORDINATE_TYPE>
2
5
10

$$$$
13739
 OpenBabel11092011363D

 32 32  0  0  0  0  0  0  0  0999 V2000
    3.5844   -0.0957    0.1288 O   0  0  0  0  0  0  0  0  0  0  0  0
   -2.6812    2.2971   -0.4954 O   0  0  0  0  0  0  0  0  0  0  0  0
    2.8958   -2.2922    0.1329 O   0  0  0  0  0  0  0  0  0  0  0  0
   -3.6208    0.5262    0.6360 O   0  0  0  0  0  0  0  0  0  0  0  0
    4.5376   -1.9510    1.9996 O   0  0  0  0  0  0  0  0  0  0  0  0
   -3.5056    4.9671   -0.7013 O   0  0  0  0  0  0  0  0  0  0  0  0
    1.2904   -0.5293    0.1305 C   0  0  0  0  0  0  0  0  0  0  0  0
   -1.2905    0.5298    0.1314 C   0  0  0  0  0  0  0  0  0  0  0  0
    0.1866   -1.3821    0.1311 C   0  0  0  0  0  0  0  0  0  0  0  0
   -1.1039   -0.8526    0.1315 C   0  0  0  0  0  0  0  0  0  0  0  0
    1.1037    0.8530    0.1304 C   0  0  0  0  0  0  0  0  0  0  0  0
   -0.1867    1.3826    0.1310 C   0  0  0  0  0  0  0  0  0  0  0  0
    2.6356   -1.0816    0.1313 C   0  0  0  0  0  0  0  0  0  0  0  0
   -2.6356    1.0817    0.1316 C   0  0  0  0  0  0  0  0  0  0  0  0
    4.9532   -0.5149    0.1298 C   0  0  0  0  0  0  0  0  0  0  0  0
   -3.9116    2.6485   -1.1376 C   0  0  0  0  0  0  0  0  0  0  0  0
    5.3575   -0.8813    1.5448 C   0  0  0  0  0  0  0  0  0  0  0  0
   -4.4504    3.9207   -0.5124 C   0  0  0  0  0  0  0  0  0  0  0  0
    0.3104   -2.4619    0.1314 H   0  0  0  0  0  0  0  0  0  0  0  0
   -1.9332   -1.5543    0.1317 H   0  0  0  0  0  0  0  0  0  0  0  0
    1.9330    1.5547    0.1300 H   0  0  0  0  0  0  0  0  0  0  0  0
   -0.3105    2.4624    0.1308 H   0  0  0  0  0  0  0  0  0  0  0  0
    5.0697   -1.3827   -0.5284 H   0  0  0  0  0  0  0  0  0  0  0  0
    5.5717    0.3125   -0.2365 H   0  0  0  0  0  0  0  0  0  0  0  0
   -3.7357    2.8017   -2.2078 H   0  0  0  0  0  0  0  0  0  0  0  0
   -4.6256    1.8299   -0.9919 H   0  0  0  0  0  0  0  0  0  0  0  0
    5.2453   -0.0331    2.2261 H   0  0  0  0  0  0  0  0  0  0  0  0
    6.3943   -1.2293    1.5747 H   0  0  0  0  0  0  0  0  0  0  0  0
   -4.6154    3.7911    0.5607 H   0  0  0  0  0  0  0  0  0  0  0  0
   -5.3889    4.2276   -0.9844 H   0  0  0  0  0  0  0  0  0  0  0  0
    3.6168   -1.6383    1.9920 H   0  0  0  0  0  0  0  0  0  0  0  0
   -3.3603    5.0596   -1.6585 H   0  0  0  0  0  0  0  0  0  0  0  0
  1 13  1  0  0  0  0
  1 15  1  0  0  0  0
  2 14  1  0  0  0  0
  2 16  1  0  0  0  0
  3 13  2  0  0  0  0
  4 14  2  0  0  0  0
  5 17  1  0  0  0  0
  5 31  1  0  0  0  0
  6 18  1  0  0  0  0
  6 32  1  0  0  0  0
  7  9  2  0  0  0  0
  7 11  1  0  0  0  0
  7 13  1  0  0  0  0
  8 10  2  0  0  0  0
  8 12  1  0  0  0  0
  8 14  1  0  0  0  0
  9 10  1  0  0  0  0
  9 19  1  0  0  0  0
 10 20  1  0  0  0  0
 11 12  2  0  0  0  0
 11 21  1  0  0  0  0
 12 22  1  0  0  0  0
 15 17  1  0  0  0  0
 15 23  1  0  0  0  0
 15 24  1  0  0  0  0
 16 18  1  0  0  0  0
 16 25  1  0  0  0  0
 16 26  1  0  0  0  0
 17 27  1  0  0  0  0
 17 28  1  0  0  0  0
 18 29  1  0  0  0  0
 18 30  1  0  0  0  0
M  END
>  <PUBCHEM_COMPOUND_CID>
13739

>  <PUBCHEM_CONFORMER_RMSD>
0.8

>  <PUBCHEM_CONFORMER_DIVERSEORDER>
1
57
49
30
42
33
44
14
53
22
19
10
12
45
3
41
11
32
40
15
36
55
29
9
38
4
58
17
37
43
52
24
51
35
20
56
31
39
16
2
21
23
28
34
26
18
25
5
46
47
6
48
8
13
50
7
27
54

>  <PUBCHEM_MMFF94_PARTIAL_CHARGES>
24
1 -0.43
10 -0.15
11 -0.15
12 -0.15
13 0.63
14 0.63
15 0.28
16 0.28
17 0.28
18 0.28
19 0.15
2 -0.43
20 0.15
21 0.15
22 0.15
3 -0.57
31 0.4
32 0.4
4 -0.57
5 -0.68
6 -0.68
7 0.09
8 0.09
9 -0.15

>  <PUBCHEM_EFFECTIVE_ROTOR_COUNT>
8

>  <PUBCHEM_PHARMACOPHORE_FEATURES>
7
1 3 acceptor
1 4 acceptor
1 5 acceptor
1 5 donor
1 6 acceptor
1 6 donor
6 7 8 9 10 11 12 rings

>  <PUBCHEM_HEAVY_ATOM_COUNT>
18

>  <PUBCHEM_ATOM_DEF_STEREO_COUNT>
0

>  <PUBCHEM_ATOM_UDEF_STEREO_COUNT>
0

>  <PUBCHEM_BOND_DEF_STEREO_COUNT>
0

>  <PUBCHEM_BOND_UDEF_STEREO_COUNT>
0

>  <PUBCHEM_ISOTOPIC_ATOM_COUNT>
0

>  <PUBCHEM_COMPONENT_COUNT>
1

>  <PUBCHEM_CACTVS_TAUTO_COUNT>
1

>  <PUBCHEM_CONFORMER_ID>
000035AB00000001

>  <PUBCHEM_MMFF94_ENERGY>
44.2295

>  <PUBCHEM_FEATURE_SELFOVERLAP>
35.523

>  <PUBCHEM_SHAPE_FINGERPRINT>
10968037 39 18410012152543713039
11089746 13 12540695946557521839
11806522 49 18410009918986535353
12236239 1 18410855447243259972
13533116 47 16660916683113605170
13862211 1 18410006628598832378
14251718 22 18411136939420945249
14251732 16 18410855494493175089
14528608 73 18409733958879929100
14787075 74 18409729560226607264
15196674 1 18338516313804112001
17834072 33 18412824698380719020
19489759 90 14418129604479230181
200 152 18412260623910614371
20645477 70 18199752449496498934
21267235 1 18412550889973548114
221490 88 18263928916185329587
23272321 79 18409451383816681488
23402539 116 18335415751807977061
23402655 69 18339074883518801269
23559900 14 18262797501097503721
34797466 226 17203614826284060588
350125 39 18411983563781164433
3545911 37 18410577275887755602
4325135 7 18410855468718096782
4340502 62 16732706042963078794
4463277 17 18412265021635592889
474 4 17676779746965951636
474229 33 18411136935353240571
5104073 3 18266741281369621474
7062679 117 18341894121495265503

>  <PUBCHEM_SHAPE_MULTIPOLES>
335.22
13.61
1.83
0.69
0
0
-0.08
0
-1.87
0
-0.09
0
0
-0.86

>  <PUBCHEM_SHAPE_SELFOVERLAP>
687.263

>  <PUBCHEM_SHAPE_VOLUME>
192.6

>  <PUBCHEM_COORDINATE_TYPE>
2
5
10

$$$$
13739
 OpenBabel11092011363D

 32 32  0  0  0  0  0  0  0  0999 V2000
    3.5844   -0.0957    0.1288 O   0  0  0  0  0  0  0  0  0  0  0  0
   -3.5178    0.2583   -0.5136 O   0  0  0  0  0  0  0  0  0  0  0  0
    2.8958   -2.2922    0.1329 O   0  0  0  0  0  0  0  0  0  0  0  0
   -2.9494    2.1624    0.6485 O   0  0  0  0  0  0  0  0  0  0  0  0
    2.8391   -1.0239    2.6652 O   0  0  0  0  0  0  0  0  0  0  0  0
   -5.6384   -0.2305   -2.2784 O   0  0  0  0  0  0  0  0  0  0  0  0
    1.2904   -0.5293    0.1305 C   0  0  0  0  0  0  0  0  0  0  0  0
   -1.2905    0.5298    0.1314 C   0  0  0  0  0  0  0  0  0  0  0  0
    0.1866   -1.3821    0.1311 C   0  0  0  0  0  0  0  0  0  0  0  0
   -1.1039   -0.8526    0.1315 C   0  0  0  0  0  0  0  0  0  0  0  0
    1.1037    0.8530    0.1304 C   0  0  0  0  0  0  0  0  0  0  0  0
   -0.1867    1.3826    0.1310 C   0  0  0  0  0  0  0  0  0  0  0  0
    2.6356   -1.0816    0.1313 C   0  0  0  0  0  0  0  0  0  0  0  0
   -2.6356    1.0817    0.1316 C   0  0  0  0  0  0  0  0  0  0  0  0
    4.5030   -0.0788    1.2267 C   0  0  0  0  0  0  0  0  0  0  0  0
   -4.8783    0.2920   -0.0693 C   0  0  0  0  0  0  0  0  0  0  0  0
    3.7261    0.0785    2.5196 C   0  0  0  0  0  0  0  0  0  0  0  0
   -5.7656    0.7156   -1.2239 C   0  0  0  0  0  0  0  0  0  0  0  0
    0.3104   -2.4619    0.1314 H   0  0  0  0  0  0  0  0  0  0  0  0
   -1.9332   -1.5543    0.1317 H   0  0  0  0  0  0  0  0  0  0  0  0
    1.9330    1.5547    0.1300 H   0  0  0  0  0  0  0  0  0  0  0  0
   -0.3105    2.4624    0.1308 H   0  0  0  0  0  0  0  0  0  0  0  0
    5.0694   -1.0162    1.2431 H   0  0  0  0  0  0  0  0  0  0  0  0
    5.1892    0.7655    1.0943 H   0  0  0  0  0  0  0  0  0  0  0  0
   -5.1728   -0.7017    0.2852 H   0  0  0  0  0  0  0  0  0  0  0  0
   -4.9588    1.0171    0.7485 H   0  0  0  0  0  0  0  0  0  0  0  0
    3.1454    1.0053    2.5280 H   0  0  0  0  0  0  0  0  0  0  0  0
    4.4003    0.0710    3.3811 H   0  0  0  0  0  0  0  0  0  0  0  0
   -5.4741    1.6991   -1.6023 H   0  0  0  0  0  0  0  0  0  0  0  0
   -6.8180    0.7445   -0.9251 H   0  0  0  0  0  0  0  0  0  0  0  0
    2.2263   -1.0089    1.9103 H   0  0  0  0  0  0  0  0  0  0  0  0
   -5.8877   -1.1001   -1.9218 H   0  0  0  0  0  0  0  0  0  0  0  0
  1 13  1  0  0  0  0
  1 15  1  0  0  0  0
  2 14  1  0  0  0  0
  2 16  1  0  0  0  0
  3 13  2  0  0  0  0
  4 14  2  0  0  0  0
  5 17  1  0  0  0  0
  5 31  1  0  0  0  0
  6 18  1  0  0  0  0
  6 32  1  0  0  0  0
  7  9  2  0  0  0  0
  7 11  1  0  0  0  0
  7 13  1  0  0  0  0
  8 10  2  0  0  0  0
  8 12  1  0  0  0  0
  8 14  1  0  0  0  0
  9 10  1  0  0  0  0
  9 19  1  0  0  0  0
 10 20  1  0  0  0  0
 11 12  2  0  0  0  0
 11 21  1  0  0  0  0
 12 22  1  0  0  0  0
 15 17  1  0  0  0  0
 15 23  1  0  0  0  0
 15 24  1  0  0  0  0
 16 18  1  0  0  0  0
 16 25  1  0  0  0  0
 16 26  1  0  0  0  0
 17 27  1  0  0  0  0
 17 28  1  0  0  0  0
 18 29  1  0  0  0  0
 18 30  1  0  0  0  0
M  END
>  <PUBCHEM_COMPOUND_CID>
13739

>  <PUBCHEM_CONFORMER_RMSD>
0.8

>  <PUBCHEM_CONFORMER_DIVERSEORDER>
1
57
49
30
42
33
44
14
53
22
19
10
12
45
3
41
11
32
40
15
36
55
29
9
38
4
58
17
37
43
52
24
51
35
20
56
31
39
16
2
21
23
28
34
26
18
25
5
46
47
6
48
8
13
50
7
27
54

>  <PUBCHEM_MMFF94_PARTIAL_CHARGES>
24
1 -0.43
10 -0.15
11 -0.15
12 -0.15
13 0.63
14 0.63
15 0.28
16 0.28
17 0.28
18 0.28
19 0.15
2 -0.43
20 0.15
21 0.15
22 0.15
3 -0.57
31 0.4
32 0.4
4 -0.57
5 -0.68
6 -0.68
7 0.09
8 0.09
9 -0.15

>  <PUBCHEM_EFFECTIVE_ROTOR_COUNT>
8

>  <PUBCHEM_PHARMACOPHORE_FEATURES>
7
1 3 acceptor
1 4 acceptor
1 5 acceptor
1 5 donor
1 6 acceptor
1 6 donor
6 7 8 9 10 11 12 rings

>  <PUBCHEM_HEAVY_ATOM_COUNT>
18

>  <PUBCHEM_ATOM_DEF_STEREO_COUNT>
0

>  <PUBCHEM_ATOM_UDEF_STEREO_COUNT>
0

>  <PUBCHEM_BOND_DEF_STEREO_COUNT>
0

>  <PUBCHEM_BOND_UDEF_STEREO_COUNT>
0

>  <PUBCHEM_ISOTOPIC_ATOM_COUNT>
0

>  <PUBCHEM_COMPONENT_COUNT>
1

>  <PUBCHEM_CACTVS_TAUTO_COUNT>
1

>  <PUBCHEM_CONFORMER_ID>
000035AB00000001

>  <PUBCHEM_MMFF94_ENERGY>
44.2295

>  <PUBCHEM_FEATURE_SELFOVERLAP>
35.523

>  <PUBCHEM_SHAPE_FINGERPRINT>
10968037 39 18410012152543713039
11089746 13 12540695946557521839
11806522 49 18410009918986535353
12236239 1 18410855447243259972
13533116 47 16660916683113605170
13862211 1 18410006628598832378
14251718 22 18411136939420945249
14251732 16 18410855494493175089
14528608 73 18409733958879929100
14787075 74 18409729560226607264
15196674 1 18338516313804112001
17834072 33 18412824698380719020
19489759 90 14418129604479230181
200 152 18412260623910614371
20645477 70 18199752449496498934
21267235 1 18412550889973548114
221490 88 18263928916185329587
23272321 79 18409451383816681488
23402539 116 18335415751807977061
23402655 69 18339074883518801269
23559900 14 18262797501097503721
34797466 226 17203614826284060588
350125 39 18411983563781164433
3545911 37 18410577275887755602
4325135 7 18410855468718096782
4340502 62 16732706042963078794
4463277 17 18412265021635592889
474 4 17676779746965951636
474229 33 18411136935353240571
5104073 3 18266741281369621474
7062679 117 18341894121495265503

>  <PUBCHEM_SHAPE_MULTIPOLES>
335.22
13.61
1.83
0.69
0
0
-0.08
0
-1.87
0
-0.09
0
0
-0.86

>  <PUBCHEM_SHAPE_SELFOVERLAP>
687.263

>  <PUBCHEM_SHAPE_VOLUME>
192.6

>  <PUBCHEM_COORDINATE_TYPE>
2
5
10

$$$$
13739
 OpenBabel11092011363D

 32 32  0  0  0  0  0  0  0  0999 V2000
    3.5844   -0.0957    0.1288 O   0  0  0  0  0  0  0  0  0  0  0  0
   -2.6184    2.4500    0.1343 O   0  0  0  0  0  0  0  0  0  0  0  0
    2.8958   -2.2922    0.1329 O   0  0  0  0  0  0  0  0  0  0  0  0
   -3.6715    0.4029    0.1307 O   0  0  0  0  0  0  0  0  0  0  0  0
    6.2072    0.8397   -0.1815 O   0  0  0  0  0  0  0  0  0  0  0  0
   -5.2200    1.8020    0.9485 O   0  0  0  0  0  0  0  0  0  0  0  0
    1.2904   -0.5293    0.1305 C   0  0  0  0  0  0  0  0  0  0  0  0
   -1.2905    0.5298    0.1314 C   0  0  0  0  0  0  0  0  0  0  0  0
    0.1866   -1.3821    0.1311 C   0  0  0  0  0  0  0  0  0  0  0  0
   -1.1039   -0.8526    0.1315 C   0  0  0  0  0  0  0  0  0  0  0  0
    1.1037    0.8530    0.1304 C   0  0  0  0  0  0  0  0  0  0  0  0
   -0.1867    1.3826    0.1310 C   0  0  0  0  0  0  0  0  0  0  0  0
    2.6356   -1.0816    0.1313 C   0  0  0  0  0  0  0  0  0  0  0  0
   -2.6356    1.0817    0.1316 C   0  0  0  0  0  0  0  0  0  0  0  0
    4.5030   -0.0788    1.2267 C   0  0  0  0  0  0  0  0  0  0  0  0
   -3.2331    3.1029    1.2504 C   0  0  0  0  0  0  0  0  0  0  0  0
    5.9136   -0.2420    0.6942 C   0  0  0  0  0  0  0  0  0  0  0  0
   -4.7344    3.1360    1.0389 C   0  0  0  0  0  0  0  0  0  0  0  0
    0.3104   -2.4619    0.1314 H   0  0  0  0  0  0  0  0  0  0  0  0
   -1.9332   -1.5543    0.1317 H   0  0  0  0  0  0  0  0  0  0  0  0
    1.9330    1.5547    0.1300 H   0  0  0  0  0  0  0  0  0  0  0  0
   -0.3105    2.4624    0.1308 H   0  0  0  0  0  0  0  0  0  0  0  0
    4.4139    0.8723    1.7626 H   0  0  0  0  0  0  0  0  0  0  0  0
    4.2564   -0.9073    1.9006 H   0  0  0  0  0  0  0  0  0  0  0  0
   -2.9957    2.5577    2.1702 H   0  0  0  0  0  0  0  0  0  0  0  0
   -2.8426    4.1250    1.3130 H   0  0  0  0  0  0  0  0  0  0  0  0
    6.0297   -1.1827    0.1485 H   0  0  0  0  0  0  0  0  0  0  0  0
    6.6425   -0.2092    1.5093 H   0  0  0  0  0  0  0  0  0  0  0  0
   -4.9890    3.6619    0.1147 H   0  0  0  0  0  0  0  0  0  0  0  0
   -5.2423    3.6210    1.8783 H   0  0  0  0  0  0  0  0  0  0  0  0
    5.5725    0.8019   -0.9172 H   0  0  0  0  0  0  0  0  0  0  0  0
   -4.9736    1.3455    1.7710 H   0  0  0  0  0  0  0  0  0  0  0  0
  1 13  1  0  0  0  0
  1 15  1  0  0  0  0
  2 14  1  0  0  0  0
  2 16  1  0  0  0  0
  3 13  2  0  0  0  0
  4 14  2  0  0  0  0
  5 17  1  0  0  0  0
  5 31  1  0  0  0  0
  6 18  1  0  0  0  0
  6 32  1  0  0  0  0
  7  9  2  0  0  0  0
  7 11  1  0  0  0  0
  7 13  1  0  0  0  0
  8 10  2  0  0  0  0
  8 12  1  0  0  0  0
  8 14  1  0  0  0  0
  9 10  1  0  0  0  0
  9 19  1  0  0  0  0
 10 20  1  0  0  0  0
 11 12  2  0  0  0  0
 11 21  1  0  0  0  0
 12 22  1  0  0  0  0
 15 17  1  0  0  0  0
 15 23  1  0  0  0  0
 15 24  1  0  0  0  0
 16 18  1  0  0  0  0
 16 25  1  0  0  0  0
 16 26  1  0  0  0  0
 17 27  1  0  0  0  0
 17 28  1  0  0  0  0
 18 29  1  0  0  0  0
 18 30  1  0  0  0  0
M  END
>  <PUBCHEM_COMPOUND_CID>
13739

>  <PUBCHEM_CONFORMER_RMSD>
0.8

>  <PUBCHEM_CONFORMER_DIVERSEORDER>
1
57
49
30
42
33
44
14
53
22
19
10
12
45
3
41
11
32
40
15
36
55
29
9
38
4
58
17
37
43
52
24
51
35
20
56
31
39
16
2
21
23
28
34
26
18
25
5
46
47
6
48
8
13
50
7
27
54

>  <PUBCHEM_MMFF94_PARTIAL_CHARGES>
24
1 -0.43
10 -0.15
11 -0.15
12 -0.15
13 0.63
14 0.63
15 0.28
16 0.28
17 0.28
18 0.28
19 0.15
2 -0.43
20 0.15
21 0.15
22 0.15
3 -0.57
31 0.4
32 0.4
4 -0.57
5 -0.68
6 -0.68
7 0.09
8 0.09
9 -0.15

>  <PUBCHEM_EFFECTIVE_ROTOR_COUNT>
8

>  <PUBCHEM_PHARMACOPHORE_FEATURES>
7
1 3 acceptor
1 4 acceptor
1 5 acceptor
1 5 donor
1 6 acceptor
1 6 donor
6 7 8 9 10 11 12 rings

>  <PUBCHEM_HEAVY_ATOM_COUNT>
18

>  <PUBCHEM_ATOM_DEF_STEREO_COUNT>
0

>  <PUBCHEM_ATOM_UDEF_STEREO_COUNT>
0

>  <PUBCHEM_BOND_DEF_STEREO_COUNT>
0

>  <PUBCHEM_BOND_UDEF_STEREO_COUNT>
0

>  <PUBCHEM_ISOTOPIC_ATOM_COUNT>
0

>  <PUBCHEM_COMPONENT_COUNT>
1

>  <PUBCHEM_CACTVS_TAUTO_COUNT>
1

>  <PUBCHEM_CONFORMER_ID>
000035AB00000001

>  <PUBCHEM_MMFF94_ENERGY>
44.2295

>  <PUBCHEM_FEATURE_SELFOVERLAP>
35.523

>  <PUBCHEM_SHAPE_FINGERPRINT>
10968037 39 18410012152543713039
11089746 13 12540695946557521839
11806522 49 18410009918986535353
12236239 1 18410855447243259972
13533116 47 16660916683113605170
13862211 1 18410006628598832378
14251718 22 18411136939420945249
14251732 16 18410855494493175089
14528608 73 18409733958879929100
14787075 74 18409729560226607264
15196674 1 18338516313804112001
17834072 33 18412824698380719020
19489759 90 14418129604479230181
200 152 18412260623910614371
20645477 70 18199752449496498934
21267235 1 18412550889973548114
221490 88 18263928916185329587
23272321 79 18409451383816681488
23402539 116 18335415751807977061
23402655 69 18339074883518801269
23559900 14 18262797501097503721
34797466 226 17203614826284060588
350125 39 18411983563781164433
3545911 37 18410577275887755602
4325135 7 18410855468718096782
4340502 62 16732706042963078794
4463277 17 18412265021635592889
474 4 17676779746965951636
474229 33 18411136935353240571
5104073 3 18266741281369621474
7062679 117 18341894121495265503

>  <PUBCHEM_SHAPE_MULTIPOLES>
335.22
13.61
1.83
0.69
0
0
-0.08
0
-1.87
0
-0.09
0
0
-0.86

>  <PUBCHEM_SHAPE_SELFOVERLAP>
687.263

>  <PUBCHEM_SHAPE_VOLUME>
192.6

>  <PUBCHEM_COORDINATE_TYPE>
2
5
10

$$$$
13739
 OpenBabel11092011363D

 32 32  0  0  0  0  0  0  0  0999 V2000
    2.6843   -2.2870    0.7769 O   0  0  0  0  0  0  0  0  0  0  0  0
   -3.5178    0.2583   -0.5136 O   0  0  0  0  0  0  0  0  0  0  0  0
    3.6183   -0.5333   -0.3854 O   0  0  0  0  0  0  0  0  0  0  0  0
   -2.9494    2.1624    0.6485 O   0  0  0  0  0  0  0  0  0  0  0  0
    5.0432   -3.7712    0.7019 O   0  0  0  0  0  0  0  0  0  0  0  0
   -5.5400    1.3755   -2.0988 O   0  0  0  0  0  0  0  0  0  0  0  0
    1.2904   -0.5293    0.1305 C   0  0  0  0  0  0  0  0  0  0  0  0
   -1.2905    0.5298    0.1314 C   0  0  0  0  0  0  0  0  0  0  0  0
    0.1866   -1.3821    0.1311 C   0  0  0  0  0  0  0  0  0  0  0  0
   -1.1039   -0.8526    0.1315 C   0  0  0  0  0  0  0  0  0  0  0  0
    1.1037    0.8530    0.1304 C   0  0  0  0  0  0  0  0  0  0  0  0
   -0.1867    1.3826    0.1310 C   0  0  0  0  0  0  0  0  0  0  0  0
    2.6356   -1.0816    0.1313 C   0  0  0  0  0  0  0  0  0  0  0  0
   -2.6356    1.0817    0.1316 C   0  0  0  0  0  0  0  0  0  0  0  0
    3.5346   -2.3720    1.9255 C   0  0  0  0  0  0  0  0  0  0  0  0
   -4.8783    0.2920   -0.0693 C   0  0  0  0  0  0  0  0  0  0  0  0
    4.9661   -2.5750    1.4677 C   0  0  0  0  0  0  0  0  0  0  0  0
   -5.5693    1.4950   -0.6817 C   0  0  0  0  0  0  0  0  0  0  0  0
    0.3104   -2.4619    0.1314 H   0  0  0  0  0  0  0  0  0  0  0  0
   -1.9332   -1.5543    0.1317 H   0  0  0  0  0  0  0  0  0  0  0  0
    1.9330    1.5547    0.1300 H   0  0  0  0  0  0  0  0  0  0  0  0
   -0.3105    2.4624    0.1308 H   0  0  0  0  0  0  0  0  0  0  0  0
    3.4561   -1.4470    2.5070 H   0  0  0  0  0  0  0  0  0  0  0  0
    3.2106   -3.2217    2.5373 H   0  0  0  0  0  0  0  0  0  0  0  0
   -5.3867   -0.6287   -0.3752 H   0  0  0  0  0  0  0  0  0  0  0  0
   -4.8848    0.3744    1.0235 H   0  0  0  0  0  0  0  0  0  0  0  0
    5.6513   -2.6516    2.3166 H   0  0  0  0  0  0  0  0  0  0  0  0
    5.2875   -1.7527    0.8217 H   0  0  0  0  0  0  0  0  0  0  0  0
   -5.0638    2.4230   -0.4007 H   0  0  0  0  0  0  0  0  0  0  0  0
   -6.6174    1.5503   -0.3719 H   0  0  0  0  0  0  0  0  0  0  0  0
    4.7760   -4.5067    1.2793 H   0  0  0  0  0  0  0  0  0  0  0  0
   -5.9806    0.5400   -2.3302 H   0  0  0  0  0  0  0  0  0  0  0  0
  1 13  1  0  0  0  0
  1 15  1  0  0  0  0
  2 14  1  0  0  0  0
  2 16  1  0  0  0  0
  3 13  2  0  0  0  0
  4 14  2  0  0  0  0
  5 17  1  0  0  0  0
  5 31  1  0  0  0  0
  6 18  1  0  0  0  0
  6 32  1  0  0  0  0
  7  9  2  0  0  0  0
  7 11  1  0  0  0  0
  7 13  1  0  0  0  0
  8 10  2  0  0  0  0
  8 12  1  0  0  0  0
  8 14  1  0  0  0  0
  9 10  1  0  0  0  0
  9 19  1  0  0  0  0
 10 20  1  0  0  0  0
 11 12  2  0  0  0  0
 11 21  1  0  0  0  0
 12 22  1  0  0  0  0
 15 17  1  0  0  0  0
 15 23  1  0  0  0  0
 15 24  1  0  0  0  0
 16 18  1  0  0  0  0
 16 25  1  0  0  0  0
 16 26  1  0  0  0  0
 17 27  1  0  0  0  0
 17 28  1  0  0  0  0
 18 29  1  0  0  0  0
 18 30  1  0  0  0  0
M  END
>  <PUBCHEM_COMPOUND_CID>
13739

>  <PUBCHEM_CONFORMER_RMSD>
0.8

>  <PUBCHEM_CONFORMER_DIVERSEORDER>
1
57
49
30
42
33
44
14
53
22
19
10
12
45
3
41
11
32
40
15
36
55
29
9
38
4
58
17
37
43
52
24
51
35
20
56
31
39
16
2
21
23
28
34
26
18
25
5
46
47
6
48
8
13
50
7
27
54

>  <PUBCHEM_MMFF94_PARTIAL_CHARGES>
24
1 -0.43
10 -0.15
11 -0.15
12 -0.15
13 0.63
14 0.63
15 0.28
16 0.28
17 0.28
18 0.28
19 0.15
2 -0.43
20 0.15
21 0.15
22 0.15
3 -0.57
31 0.4
32 0.4
4 -0.57
5 -0.68
6 -0.68
7 0.09
8 0.09
9 -0.15

>  <PUBCHEM_EFFECTIVE_ROTOR_COUNT>
8

>  <PUBCHEM_PHARMACOPHORE_FEATURES>
7
1 3 acceptor
1 4 acceptor
1 5 acceptor
1 5 donor
1 6 acceptor
1 6 donor
6 7 8 9 10 11 12 rings

>  <PUBCHEM_HEAVY_ATOM_COUNT>
18

>  <PUBCHEM_ATOM_DEF_STEREO_COUNT>
0

>  <PUBCHEM_ATOM_UDEF_STEREO_COUNT>
0

>  <PUBCHEM_BOND_DEF_STEREO_COUNT>
0

>  <PUBCHEM_BOND_UDEF_STEREO_COUNT>
0

>  <PUBCHEM_ISOTOPIC_ATOM_COUNT>
0

>  <PUBCHEM_COMPONENT_COUNT>
1

>  <PUBCHEM_CACTVS_TAUTO_COUNT>
1

>  <PUBCHEM_CONFORMER_ID>
000035AB00000001

>  <PUBCHEM_MMFF94_ENERGY>
44.2295

>  <PUBCHEM_FEATURE_SELFOVERLAP>
35.523

>  <PUBCHEM_SHAPE_FINGERPRINT>
10968037 39 18410012152543713039
11089746 13 12540695946557521839
11806522 49 18410009918986535353
12236239 1 18410855447243259972
13533116 47 16660916683113605170
13862211 1 18410006628598832378
14251718 22 18411136939420945249
14251732 16 18410855494493175089
14528608 73 18409733958879929100
14787075 74 18409729560226607264
15196674 1 18338516313804112001
17834072 33 18412824698380719020
19489759 90 14418129604479230181
200 152 18412260623910614371
20645477 70 18199752449496498934
21267235 1 18412550889973548114
221490 88 18263928916185329587
23272321 79 18409451383816681488
23402539 116 18335415751807977061
23402655 69 18339074883518801269
23559900 14 18262797501097503721
34797466 226 17203614826284060588
350125 39 18411983563781164433
3545911 37 18410577275887755602
4325135 7 18410855468718096782
4340502 62 16732706042963078794
4463277 17 18412265021635592889
474 4 17676779746965951636
474229 33 18411136935353240571
5104073 3 18266741281369621474
7062679 117 18341894121495265503

>  <PUBCHEM_SHAPE_MULTIPOLES>
335.22
13.61
1.83
0.69
0
0
-0.08
0
-1.87
0
-0.09
0
0
-0.86

>  <PUBCHEM_SHAPE_SELFOVERLAP>
687.263

>  <PUBCHEM_SHAPE_VOLUME>
192.6

>  <PUBCHEM_COORDINATE_TYPE>
2
5
10

$$$$
13739
 OpenBabel11092011363D

 32 32  0  0  0  0  0  0  0  0999 V2000
    2.6843   -2.2870    0.7769 O   0  0  0  0  0  0  0  0  0  0  0  0
   -3.5178    0.2583   -0.5136 O   0  0  0  0  0  0  0  0  0  0  0  0
    3.6183   -0.5333   -0.3854 O   0  0  0  0  0  0  0  0  0  0  0  0
   -2.9494    2.1624    0.6485 O   0  0  0  0  0  0  0  0  0  0  0  0
    2.0807   -3.9980    2.9120 O   0  0  0  0  0  0  0  0  0  0  0  0
   -4.4371    1.8240   -2.6476 O   0  0  0  0  0  0  0  0  0  0  0  0
    1.2904   -0.5293    0.1305 C   0  0  0  0  0  0  0  0  0  0  0  0
   -1.2905    0.5298    0.1314 C   0  0  0  0  0  0  0  0  0  0  0  0
    0.1866   -1.3821    0.1311 C   0  0  0  0  0  0  0  0  0  0  0  0
   -1.1039   -0.8526    0.1315 C   0  0  0  0  0  0  0  0  0  0  0  0
    1.1037    0.8530    0.1304 C   0  0  0  0  0  0  0  0  0  0  0  0
   -0.1867    1.3826    0.1310 C   0  0  0  0  0  0  0  0  0  0  0  0
    2.6356   -1.0816    0.1313 C   0  0  0  0  0  0  0  0  0  0  0  0
   -2.6356    1.0817    0.1316 C   0  0  0  0  0  0  0  0  0  0  0  0
    3.5346   -2.3720    1.9255 C   0  0  0  0  0  0  0  0  0  0  0  0
   -4.8792    0.6956   -0.5831 C   0  0  0  0  0  0  0  0  0  0  0  0
    2.6963   -2.7355    3.1360 C   0  0  0  0  0  0  0  0  0  0  0  0
   -4.9380    2.0141   -1.3299 C   0  0  0  0  0  0  0  0  0  0  0  0
    0.3104   -2.4619    0.1314 H   0  0  0  0  0  0  0  0  0  0  0  0
   -1.9332   -1.5543    0.1317 H   0  0  0  0  0  0  0  0  0  0  0  0
    1.9330    1.5547    0.1300 H   0  0  0  0  0  0  0  0  0  0  0  0
   -0.3105    2.4624    0.1308 H   0  0  0  0  0  0  0  0  0  0  0  0
    4.2996   -3.1377    1.7575 H   0  0  0  0  0  0  0  0  0  0  0  0
    4.0137   -1.3980    2.0777 H   0  0  0  0  0  0  0  0  0  0  0  0
   -5.4800   -0.0577   -1.1040 H   0  0  0  0  0  0  0  0  0  0  0  0
   -5.2539    0.8284    0.4382 H   0  0  0  0  0  0  0  0  0  0  0  0
    1.9190   -1.9894    3.3239 H   0  0  0  0  0  0  0  0  0  0  0  0
    3.3229   -2.8315    4.0276 H   0  0  0  0  0  0  0  0  0  0  0  0
   -4.3288    2.7740   -0.8329 H   0  0  0  0  0  0  0  0  0  0  0  0
   -5.9670    2.3776   -1.4120 H   0  0  0  0  0  0  0  0  0  0  0  0
    1.5082   -3.9106    2.1308 H   0  0  0  0  0  0  0  0  0  0  0  0
   -4.9804    1.1367   -3.0698 H   0  0  0  0  0  0  0  0  0  0  0  0
  1 13  1  0  0  0  0
  1 15  1  0  0  0  0
  2 14  1  0  0  0  0
  2 16  1  0  0  0  0
  3 13  2  0  0  0  0
  4 14  2  0  0  0  0
  5 17  1  0  0  0  0
  5 31  1  0  0  0  0
  6 18  1  0  0  0  0
  6 32  1  0  0  0  0
  7  9  2  0  0  0  0
  7 11  1  0  0  0  0
  7 13  1  0  0  0  0
  8 10  2  0  0  0  0
  8 12  1  0  0  0  0
  8 14  1  0  0  0  0
  9 10  1  0  0  0  0
  9 19  1  0  0  0  0
 10 20  1  0  0  0  0
 11 12  2  0  0  0  0
 11 21  1  0  0  0  0
 12 22  1  0  0  0  0
 15 17  1  0  0  0  0
 15 23  1  0  0  0  0
 15 24  1  0  0  0  0
 16 18  1  0  0  0  0
 16 25  1  0  0  0  0
 16 26  1  0  0  0  0
 17 27  1  0  0  0  0
 17 28  1  0  0  0  0
 18 29  1  0  0  0  0
 18 30  1  0  0  0  0
M  END
>  <PUBCHEM_COMPOUND_CID>
13739

>  <PUBCHEM_CONFORMER_RMSD>
0.8

>  <PUBCHEM_CONFORMER_DIVERSEORDER>
1
57
49
30
42
33
44
14
53
22
19
10
12
45
3
41
11
32
40
15
36
55
29
9
38
4
58
17
37
43
52
24
51
35
20
56
31
39
16
2
21
23
28
34
26
18
25
5
46
47
6
48
8
13
50
7
27
54

>  <PUBCHEM_MMFF94_PARTIAL_CHARGES>
24
1 -0.43
10 -0.15
11 -0.15
12 -0.15
13 0.63
14 0.63
15 0.28
16 0.28
17 0.28
18 0.28
19 0.15
2 -0.43
20 0.15
21 0.15
22 0.15
3 -0.57
31 0.4
32 0.4
4 -0.57
5 -0.68
6 -0.68
7 0.09
8 0.09
9 -0.15

>  <PUBCHEM_EFFECTIVE_ROTOR_COUNT>
8

>  <PUBCHEM_PHARMACOPHORE_FEATURES>
7
1 3 acceptor
1 4 acceptor
1 5 acceptor
1 5 donor
1 6 acceptor
1 6 donor
6 7 8 9 10 11 12 rings

>  <PUBCHEM_HEAVY_ATOM_COUNT>
18

>  <PUBCHEM_ATOM_DEF_STEREO_COUNT>
0

>  <PUBCHEM_ATOM_UDEF_STEREO_COUNT>
0

>  <PUBCHEM_BOND_DEF_STEREO_COUNT>
0

>  <PUBCHEM_BOND_UDEF_STEREO_COUNT>
0

>  <PUBCHEM_ISOTOPIC_ATOM_COUNT>
0

>  <PUBCHEM_COMPONENT_COUNT>
1

>  <PUBCHEM_CACTVS_TAUTO_COUNT>
1

>  <PUBCHEM_CONFORMER_ID>
000035AB00000001

>  <PUBCHEM_MMFF94_ENERGY>
44.2295

>  <PUBCHEM_FEATURE_SELFOVERLAP>
35.523

>  <PUBCHEM_SHAPE_FINGERPRINT>
10968037 39 18410012152543713039
11089746 13 12540695946557521839
11806522 49 18410009918986535353
12236239 1 18410855447243259972
13533116 47 16660916683113605170
13862211 1 18410006628598832378
14251718 22 18411136939420945249
14251732 16 18410855494493175089
14528608 73 18409733958879929100
14787075 74 18409729560226607264
15196674 1 18338516313804112001
17834072 33 18412824698380719020
19489759 90 14418129604479230181
200 152 18412260623910614371
20645477 70 18199752449496498934
21267235 1 18412550889973548114
221490 88 18263928916185329587
23272321 79 18409451383816681488
23402539 116 18335415751807977061
23402655 69 18339074883518801269
23559900 14 18262797501097503721
34797466 226 17203614826284060588
350125 39 18411983563781164433
3545911 37 18410577275887755602
4325135 7 18410855468718096782
4340502 62 16732706042963078794
4463277 17 18412265021635592889
474 4 17676779746965951636
474229 33 18411136935353240571
5104073 3 18266741281369621474
7062679 117 18341894121495265503

>  <PUBCHEM_SHAPE_MULTIPOLES>
335.22
13.61
1.83
0.69
0
0
-0.08
0
-1.87
0
-0.09
0
0
-0.86

>  <PUBCHEM_SHAPE_SELFOVERLAP>
687.263

>  <PUBCHEM_SHAPE_VOLUME>
192.6

>  <PUBCHEM_COORDINATE_TYPE>
2
5
10

$$$$
13739
 OpenBabel11092011363D

 32 32  0  0  0  0  0  0  0  0999 V2000
    2.6843   -2.2870    0.7769 O   0  0  0  0  0  0  0  0  0  0  0  0
   -2.6812    2.2971   -0.4954 O   0  0  0  0  0  0  0  0  0  0  0  0
    3.6183   -0.5333   -0.3854 O   0  0  0  0  0  0  0  0  0  0  0  0
   -3.6208    0.5262    0.6360 O   0  0  0  0  0  0  0  0  0  0  0  0
    1.5656   -2.8977   -1.7183 O   0  0  0  0  0  0  0  0  0  0  0  0
   -2.2483    5.0631   -0.6067 O   0  0  0  0  0  0  0  0  0  0  0  0
    1.2904   -0.5293    0.1305 C   0  0  0  0  0  0  0  0  0  0  0  0
   -1.2905    0.5298    0.1314 C   0  0  0  0  0  0  0  0  0  0  0  0
    0.1866   -1.3821    0.1311 C   0  0  0  0  0  0  0  0  0  0  0  0
   -1.1039   -0.8526    0.1315 C   0  0  0  0  0  0  0  0  0  0  0  0
    1.1037    0.8530    0.1304 C   0  0  0  0  0  0  0  0  0  0  0  0
   -0.1867    1.3826    0.1310 C   0  0  0  0  0  0  0  0  0  0  0  0
    2.6356   -1.0816    0.1313 C   0  0  0  0  0  0  0  0  0  0  0  0
   -2.6356    1.0817    0.1316 C   0  0  0  0  0  0  0  0  0  0  0  0
    3.1353   -3.4116    0.0146 C   0  0  0  0  0  0  0  0  0  0  0  0
   -3.6721    3.2242   -0.0390 C   0  0  0  0  0  0  0  0  0  0  0  0
    1.9881   -3.9274   -0.8326 C   0  0  0  0  0  0  0  0  0  0  0  0
   -2.9826    4.4785    0.4621 C   0  0  0  0  0  0  0  0  0  0  0  0
    0.3104   -2.4619    0.1314 H   0  0  0  0  0  0  0  0  0  0  0  0
   -1.9332   -1.5543    0.1317 H   0  0  0  0  0  0  0  0  0  0  0  0
    1.9330    1.5547    0.1300 H   0  0  0  0  0  0  0  0  0  0  0  0
   -0.3105    2.4624    0.1308 H   0  0  0  0  0  0  0  0  0  0  0  0
    3.9671   -3.1062   -0.6293 H   0  0  0  0  0  0  0  0  0  0  0  0
    3.4716   -4.1909    0.7081 H   0  0  0  0  0  0  0  0  0  0  0  0
   -4.3494    3.4722   -0.8633 H   0  0  0  0  0  0  0  0  0  0  0  0
   -4.2353    2.7570    0.7768 H   0  0  0  0  0  0  0  0  0  0  0  0
    1.1398   -4.2346   -0.2143 H   0  0  0  0  0  0  0  0  0  0  0  0
    2.3087   -4.7745   -1.4462 H   0  0  0  0  0  0  0  0  0  0  0  0
   -2.2886    4.2468    1.2747 H   0  0  0  0  0  0  0  0  0  0  0  0
   -3.7098    5.2176    0.8124 H   0  0  0  0  0  0  0  0  0  0  0  0
    1.2622   -2.1501   -1.1753 H   0  0  0  0  0  0  0  0  0  0  0  0
   -2.8771    5.2499   -1.3247 H   0  0  0  0  0  0  0  0  0  0  0  0
  1 13  1  0  0  0  0
  1 15  1  0  0  0  0
  2 14  1  0  0  0  0
  2 16  1  0  0  0  0
  3 13  2  0  0  0  0
  4 14  2  0  0  0  0
  5 17  1  0  0  0  0
  5 31  1  0  0  0  0
  6 18  1  0  0  0  0
  6 32  1  0  0  0  0
  7  9  2  0  0  0  0
  7 11  1  0  0  0  0
  7 13  1  0  0  0  0
  8 10  2  0  0  0  0
  8 12  1  0  0  0  0
  8 14  1  0  0  0  0
  9 10  1  0  0  0  0
  9 19  1  0  0  0  0
 10 20  1  0  0  0  0
 11 12  2  0  0  0  0
 11 21  1  0  0  0  0
 12 22  1  0  0  0  0
 15 17  1  0  0  0  0
 15 23  1  0  0  0  0
 15 24  1  0  0  0  0
 16 18  1  0  0  0  0
 16 25  1  0  0  0  0
 16 26  1  0  0  0  0
 17 27  1  0  0  0  0
 17 28  1  0  0  0  0
 18 29  1  0  0  0  0
 18 30  1  0  0  0  0
M  END
>  <PUBCHEM_COMPOUND_CID>
13739

>  <PUBCHEM_CONFORMER_RMSD>
0.8

>  <PUBCHEM_CONFORMER_DIVERSEORDER>
1
57
49
30
42
33
44
14
53
22
19
10
12
45
3
41
11
32
40
15
36
55
29
9
38
4
58
17
37
43
52
24
51
35
20
56
31
39
16
2
21
23
28
34
26
18
25
5
46
47
6
48
8
13
50
7
27
54

>  <PUBCHEM_MMFF94_PARTIAL_CHARGES>
24
1 -0.43
10 -0.15
11 -0.15
12 -0.15
13 0.63
14 0.63
15 0.28
16 0.28
17 0.28
18 0.28
19 0.15
2 -0.43
20 0.15
21 0.15
22 0.15
3 -0.57
31 0.4
32 0.4
4 -0.57
5 -0.68
6 -0.68
7 0.09
8 0.09
9 -0.15

>  <PUBCHEM_EFFECTIVE_ROTOR_COUNT>
8

>  <PUBCHEM_PHARMACOPHORE_FEATURES>
7
1 3 acceptor
1 4 acceptor
1 5 acceptor
1 5 donor
1 6 acceptor
1 6 donor
6 7 8 9 10 11 12 rings

>  <PUBCHEM_HEAVY_ATOM_COUNT>
18

>  <PUBCHEM_ATOM_DEF_STEREO_COUNT>
0

>  <PUBCHEM_ATOM_UDEF_STEREO_COUNT>
0

>  <PUBCHEM_BOND_DEF_STEREO_COUNT>
0

>  <PUBCHEM_BOND_UDEF_STEREO_COUNT>
0

>  <PUBCHEM_ISOTOPIC_ATOM_COUNT>
0

>  <PUBCHEM_COMPONENT_COUNT>
1

>  <PUBCHEM_CACTVS_TAUTO_COUNT>
1

>  <PUBCHEM_CONFORMER_ID>
000035AB00000001

>  <PUBCHEM_MMFF94_ENERGY>
44.2295

>  <PUBCHEM_FEATURE_SELFOVERLAP>
35.523

>  <PUBCHEM_SHAPE_FINGERPRINT>
10968037 39 18410012152543713039
11089746 13 12540695946557521839
11806522 49 18410009918986535353
12236239 1 18410855447243259972
13533116 47 16660916683113605170
13862211 1 18410006628598832378
14251718 22 18411136939420945249
14251732 16 18410855494493175089
14528608 73 18409733958879929100
14787075 74 18409729560226607264
15196674 1 18338516313804112001
17834072 33 18412824698380719020
19489759 90 14418129604479230181
200 152 18412260623910614371
20645477 70 18199752449496498934
21267235 1 18412550889973548114
221490 88 18263928916185329587
23272321 79 18409451383816681488
23402539 116 18335415751807977061
23402655 69 18339074883518801269
23559900 14 18262797501097503721
34797466 226 17203614826284060588
350125 39 18411983563781164433
3545911 37 18410577275887755602
4325135 7 18410855468718096782
4340502 62 16732706042963078794
4463277 17 18412265021635592889
474 4 17676779746965951636
474229 33 18411136935353240571
5104073 3 18266741281369621474
7062679 117 18341894121495265503

>  <PUBCHEM_SHAPE_MULTIPOLES>
335.22
13.61
1.83
0.69
0
0
-0.08
0
-1.87
0
-0.09
0
0
-0.86

>  <PUBCHEM_SHAPE_SELFOVERLAP>
687.263

>  <PUBCHEM_SHAPE_VOLUME>
192.6

>  <PUBCHEM_COORDINATE_TYPE>
2
5
10

$$$$
13739
 OpenBabel11092011363D

 32 32  0  0  0  0  0  0  0  0999 V2000
    2.6843   -2.2870    0.7769 O   0  0  0  0  0  0  0  0  0  0  0  0
   -3.5178    0.2583   -0.5136 O   0  0  0  0  0  0  0  0  0  0  0  0
    3.6183   -0.5333   -0.3854 O   0  0  0  0  0  0  0  0  0  0  0  0
   -2.9494    2.1624    0.6485 O   0  0  0  0  0  0  0  0  0  0  0  0
    5.8086   -2.6758    2.6092 O   0  0  0  0  0  0  0  0  0  0  0  0
   -4.3868   -1.3968    1.5548 O   0  0  0  0  0  0  0  0  0  0  0  0
    1.2904   -0.5293    0.1305 C   0  0  0  0  0  0  0  0  0  0  0  0
   -1.2905    0.5298    0.1314 C   0  0  0  0  0  0  0  0  0  0  0  0
    0.1866   -1.3821    0.1311 C   0  0  0  0  0  0  0  0  0  0  0  0
   -1.1039   -0.8526    0.1315 C   0  0  0  0  0  0  0  0  0  0  0  0
    1.1037    0.8530    0.1304 C   0  0  0  0  0  0  0  0  0  0  0  0
   -0.1867    1.3826    0.1310 C   0  0  0  0  0  0  0  0  0  0  0  0
    2.6356   -1.0816    0.1313 C   0  0  0  0  0  0  0  0  0  0  0  0
   -2.6356    1.0817    0.1316 C   0  0  0  0  0  0  0  0  0  0  0  0
    3.5346   -2.3720    1.9255 C   0  0  0  0  0  0  0  0  0  0  0  0
   -4.8783    0.2920   -0.0693 C   0  0  0  0  0  0  0  0  0  0  0  0
    4.9661   -2.5750    1.4677 C   0  0  0  0  0  0  0  0  0  0  0  0
   -4.9296   -0.0915    1.3971 C   0  0  0  0  0  0  0  0  0  0  0  0
    0.3104   -2.4619    0.1314 H   0  0  0  0  0  0  0  0  0  0  0  0
   -1.9332   -1.5543    0.1317 H   0  0  0  0  0  0  0  0  0  0  0  0
    1.9330    1.5547    0.1300 H   0  0  0  0  0  0  0  0  0  0  0  0
   -0.3105    2.4624    0.1308 H   0  0  0  0  0  0  0  0  0  0  0  0
    3.4561   -1.4470    2.5070 H   0  0  0  0  0  0  0  0  0  0  0  0
    3.2106   -3.2217    2.5373 H   0  0  0  0  0  0  0  0  0  0  0  0
   -5.2844    1.2997   -0.2080 H   0  0  0  0  0  0  0  0  0  0  0  0
   -5.4554   -0.4261   -0.6629 H   0  0  0  0  0  0  0  0  0  0  0  0
    5.3093   -1.7440    0.8449 H   0  0  0  0  0  0  0  0  0  0  0  0
    5.0653   -3.5081    0.9053 H   0  0  0  0  0  0  0  0  0  0  0  0
   -5.9590   -0.0963    1.7656 H   0  0  0  0  0  0  0  0  0  0  0  0
   -4.3342    0.5948    2.0072 H   0  0  0  0  0  0  0  0  0  0  0  0
    5.7369   -1.8401    3.1013 H   0  0  0  0  0  0  0  0  0  0  0  0
   -3.4776   -1.3782    1.2103 H   0  0  0  0  0  0  0  0  0  0  0  0
  1 13  1  0  0  0  0
  1 15  1  0  0  0  0
  2 14  1  0  0  0  0
  2 16  1  0  0  0  0
  3 13  2  0  0  0  0
  4 14  2  0  0  0  0
  5 17  1  0  0  0  0
  5 31  1  0  0  0  0
  6 18  1  0  0  0  0
  6 32  1  0  0  0  0
  7  9  2  0  0  0  0
  7 11  1  0  0  0  0
  7 13  1  0  0  0  0
  8 10  2  0  0  0  0
  8 12  1  0  0  0  0
  8 14  1  0  0  0  0
  9 10  1  0  0  0  0
  9 19  1  0  0  0  0
 10 20  1  0  0  0  0
 11 12  2  0  0  0  0
 11 21  1  0  0  0  0
 12 22  1  0  0  0  0
 15 17  1  0  0  0  0
 15 23  1  0  0  0  0
 15 24  1  0  0  0  0
 16 18  1  0  0  0  0
 16 25  1  0  0  0  0
 16 26  1  0  0  0  0
 17 27  1  0  0  0  0
 17 28  1  0  0  0  0
 18 29  1  0  0  0  0
 18 30  1  0  0  0  0
M  END
>  <PUBCHEM_COMPOUND_CID>
13739

>  <PUBCHEM_CONFORMER_RMSD>
0.8

>  <PUBCHEM_CONFORMER_DIVERSEORDER>
1
57
49
30
42
33
44
14
53
22
19
10
12
45
3
41
11
32
40
15
36
55
29
9
38
4
58
17
37
43
52
24
51
35
20
56
31
39
16
2
21
23
28
34
26
18
25
5
46
47
6
48
8
13
50
7
27
54

>  <PUBCHEM_MMFF94_PARTIAL_CHARGES>
24
1 -0.43
10 -0.15
11 -0.15
12 -0.15
13 0.63
14 0.63
15 0.28
16 0.28
17 0.28
18 0.28
19 0.15
2 -0.43
20 0.15
21 0.15
22 0.15
3 -0.57
31 0.4
32 0.4
4 -0.57
5 -0.68
6 -0.68
7 0.09
8 0.09
9 -0.15

>  <PUBCHEM_EFFECTIVE_ROTOR_COUNT>
8

>  <PUBCHEM_PHARMACOPHORE_FEATURES>
7
1 3 acceptor
1 4 acceptor
1 5 acceptor
1 5 donor
1 6 acceptor
1 6 donor
6 7 8 9 10 11 12 rings

>  <PUBCHEM_HEAVY_ATOM_COUNT>
18

>  <PUBCHEM_ATOM_DEF_STEREO_COUNT>
0

>  <PUBCHEM_ATOM_UDEF_STEREO_COUNT>
0

>  <PUBCHEM_BOND_DEF_STEREO_COUNT>
0

>  <PUBCHEM_BOND_UDEF_STEREO_COUNT>
0

>  <PUBCHEM_ISOTOPIC_ATOM_COUNT>
0

>  <PUBCHEM_COMPONENT_COUNT>
1

>  <PUBCHEM_CACTVS_TAUTO_COUNT>
1

>  <PUBCHEM_CONFORMER_ID>
000035AB00000001

>  <PUBCHEM_MMFF94_ENERGY>
44.2295

>  <PUBCHEM_FEATURE_SELFOVERLAP>
35.523

>  <PUBCHEM_SHAPE_FINGERPRINT>
10968037 39 18410012152543713039
11089746 13 12540695946557521839
11806522 49 18410009918986535353
12236239 1 18410855447243259972
13533116 47 16660916683113605170
13862211 1 18410006628598832378
14251718 22 18411136939420945249
14251732 16 18410855494493175089
14528608 73 18409733958879929100
14787075 74 18409729560226607264
15196674 1 18338516313804112001
17834072 33 18412824698380719020
19489759 90 14418129604479230181
200 152 18412260623910614371
20645477 70 18199752449496498934
21267235 1 18412550889973548114
221490 88 18263928916185329587
23272321 79 18409451383816681488
23402539 116 18335415751807977061
23402655 69 18339074883518801269
23559900 14 18262797501097503721
34797466 226 17203614826284060588
350125 39 18411983563781164433
3545911 37 18410577275887755602
4325135 7 18410855468718096782
4340502 62 16732706042963078794
4463277 17 18412265021635592889
474 4 17676779746965951636
474229 33 18411136935353240571
5104073 3 18266741281369621474
7062679 117 18341894121495265503

>  <PUBCHEM_SHAPE_MULTIPOLES>
335.22
13.61
1.83
0.69
0
0
-0.08
0
-1.87
0
-0.09
0
0
-0.86

>  <PUBCHEM_SHAPE_SELFOVERLAP>
687.263

>  <PUBCHEM_SHAPE_VOLUME>
192.6

>  <PUBCHEM_COORDINATE_TYPE>
2
5
10

$$$$
13739
 OpenBabel11092011363D

 32 32  0  0  0  0  0  0  0  0999 V2000
    2.6843   -2.2870    0.7769 O   0  0  0  0  0  0  0  0  0  0  0  0
   -2.6812    2.2971   -0.4954 O   0  0  0  0  0  0  0  0  0  0  0  0
    3.6183   -0.5333   -0.3854 O   0  0  0  0  0  0  0  0  0  0  0  0
   -3.6208    0.5262    0.6360 O   0  0  0  0  0  0  0  0  0  0  0  0
    3.1058   -0.0672    2.4102 O   0  0  0  0  0  0  0  0  0  0  0  0
   -5.8382    2.7141   -2.2646 O   0  0  0  0  0  0  0  0  0  0  0  0
    1.2904   -0.5293    0.1305 C   0  0  0  0  0  0  0  0  0  0  0  0
   -1.2905    0.5298    0.1314 C   0  0  0  0  0  0  0  0  0  0  0  0
    0.1866   -1.3821    0.1311 C   0  0  0  0  0  0  0  0  0  0  0  0
   -1.1039   -0.8526    0.1315 C   0  0  0  0  0  0  0  0  0  0  0  0
    1.1037    0.8530    0.1304 C   0  0  0  0  0  0  0  0  0  0  0  0
   -0.1867    1.3826    0.1310 C   0  0  0  0  0  0  0  0  0  0  0  0
    2.6356   -1.0816    0.1313 C   0  0  0  0  0  0  0  0  0  0  0  0
   -2.6356    1.0817    0.1316 C   0  0  0  0  0  0  0  0  0  0  0  0
    3.5346   -2.3720    1.9255 C   0  0  0  0  0  0  0  0  0  0  0  0
   -3.5508    2.4095   -1.6271 C   0  0  0  0  0  0  0  0  0  0  0  0
    3.0614   -1.3756    2.9663 C   0  0  0  0  0  0  0  0  0  0  0  0
   -4.9718    2.6188   -1.1405 C   0  0  0  0  0  0  0  0  0  0  0  0
    0.3104   -2.4619    0.1314 H   0  0  0  0  0  0  0  0  0  0  0  0
   -1.9332   -1.5543    0.1317 H   0  0  0  0  0  0  0  0  0  0  0  0
    1.9330    1.5547    0.1300 H   0  0  0  0  0  0  0  0  0  0  0  0
   -0.3105    2.4624    0.1308 H   0  0  0  0  0  0  0  0  0  0  0  0
    3.4945   -3.3871    2.3350 H   0  0  0  0  0  0  0  0  0  0  0  0
    4.5602   -2.1376    1.6184 H   0  0  0  0  0  0  0  0  0  0  0  0
   -3.2380    3.2565   -2.2471 H   0  0  0  0  0  0  0  0  0  0  0  0
   -3.4880    1.4816   -2.2069 H   0  0  0  0  0  0  0  0  0  0  0  0
    3.6890   -1.4027    3.8616 H   0  0  0  0  0  0  0  0  0  0  0  0
    2.0239   -1.5743    3.2507 H   0  0  0  0  0  0  0  0  0  0  0  0
   -5.0554    3.5405   -0.5583 H   0  0  0  0  0  0  0  0  0  0  0  0
   -5.3091    1.7768   -0.5281 H   0  0  0  0  0  0  0  0  0  0  0  0
    4.0304    0.1197    2.1736 H   0  0  0  0  0  0  0  0  0  0  0  0
   -5.7414    1.8937   -2.7778 H   0  0  0  0  0  0  0  0  0  0  0  0
  1 13  1  0  0  0  0
  1 15  1  0  0  0  0
  2 14  1  0  0  0  0
  2 16  1  0  0  0  0
  3 13  2  0  0  0  0
  4 14  2  0  0  0  0
  5 17  1  0  0  0  0
  5 31  1  0  0  0  0
  6 18  1  0  0  0  0
  6 32  1  0  0  0  0
  7  9  2  0  0  0  0
  7 11  1  0  0  0  0
  7 13  1  0  0  0  0
  8 10  2  0  0  0  0
  8 12  1  0  0  0  0
  8 14  1  0  0  0  0
  9 10  1  0  0  0  0
  9 19  1  0  0  0  0
 10 20  1  0  0  0  0
 11 12  2  0  0  0  0
 11 21  1  0  0  0  0
 12 22  1  0  0  0  0
 15 17  1  0  0  0  0
 15 23  1  0  0  0  0
 15 24  1  0  0  0  0
 16 18  1  0  0  0  0
 16 25  1  0  0  0  0
 16 26  1  0  0  0  0
 17 27  1  0  0  0  0
 17 28  1  0  0  0  0
 18 29  1  0  0  0  0
 18 30  1  0  0  0  0
M  END
>  <PUBCHEM_COMPOUND_CID>
13739

>  <PUBCHEM_CONFORMER_RMSD>
0.8

>  <PUBCHEM_CONFORMER_DIVERSEORDER>
1
57
49
30
42
33
44
14
53
22
19
10
12
45
3
41
11
32
40
15
36
55
29
9
38
4
58
17
37
43
52
24
51
35
20
56
31
39
16
2
21
23
28
34
26
18
25
5
46
47
6
48
8
13
50
7
27
54

>  <PUBCHEM_MMFF94_PARTIAL_CHARGES>
24
1 -0.43
10 -0.15
11 -0.15
12 -0.15
13 0.63
14 0.63
15 0.28
16 0.28
17 0.28
18 0.28
19 0.15
2 -0.43
20 0.15
21 0.15
22 0.15
3 -0.57
31 0.4
32 0.4
4 -0.57
5 -0.68
6 -0.68
7 0.09
8 0.09
9 -0.15

>  <PUBCHEM_EFFECTIVE_ROTOR_COUNT>
8

>  <PUBCHEM_PHARMACOPHORE_FEATURES>
7
1 3 acceptor
1 4 acceptor
1 5 acceptor
1 5 donor
1 6 acceptor
1 6 donor
6 7 8 9 10 11 12 rings

>  <PUBCHEM_HEAVY_ATOM_COUNT>
18

>  <PUBCHEM_ATOM_DEF_STEREO_COUNT>
0

>  <PUBCHEM_ATOM_UDEF_STEREO_COUNT>
0

>  <PUBCHEM_BOND_DEF_STEREO_COUNT>
0

>  <PUBCHEM_BOND_UDEF_STEREO_COUNT>
0

>  <PUBCHEM_ISOTOPIC_ATOM_COUNT>
0

>  <PUBCHEM_COMPONENT_COUNT>
1

>  <PUBCHEM_CACTVS_TAUTO_COUNT>
1

>  <PUBCHEM_CONFORMER_ID>
000035AB00000001

>  <PUBCHEM_MMFF94_ENERGY>
44.2295

>  <PUBCHEM_FEATURE_SELFOVERLAP>
35.523

>  <PUBCHEM_SHAPE_FINGERPRINT>
10968037 39 18410012152543713039
11089746 13 12540695946557521839
11806522 49 18410009918986535353
12236239 1 18410855447243259972
13533116 47 16660916683113605170
13862211 1 18410006628598832378
14251718 22 18411136939420945249
14251732 16 18410855494493175089
14528608 73 18409733958879929100
14787075 74 18409729560226607264
15196674 1 18338516313804112001
17834072 33 18412824698380719020
19489759 90 14418129604479230181
200 152 18412260623910614371
20645477 70 18199752449496498934
21267235 1 18412550889973548114
221490 88 18263928916185329587
23272321 79 18409451383816681488
23402539 116 18335415751807977061
23402655 69 18339074883518801269
23559900 14 18262797501097503721
34797466 226 17203614826284060588
350125 39 18411983563781164433
3545911 37 18410577275887755602
4325135 7 18410855468718096782
4340502 62 16732706042963078794
4463277 17 18412265021635592889
474 4 17676779746965951636
474229 33 18411136935353240571
5104073 3 18266741281369621474
7062679 117 18341894121495265503

>  <PUBCHEM_SHAPE_MULTIPOLES>
335.22
13.61
1.83
0.69
0
0
-0.08
0
-1.87
0
-0.09
0
0
-0.86

>  <PUBCHEM_SHAPE_SELFOVERLAP>
687.263

>  <PUBCHEM_SHAPE_VOLUME>
192.6

>  <PUBCHEM_COORDINATE_TYPE>
2
5
10

$$$$
13739
 OpenBabel11092011363D

 32 32  0  0  0  0  0  0  0  0999 V2000
    3.5213   -0.2484    0.7586 O   0  0  0  0  0  0  0  0  0  0  0  0
   -3.5178    0.2583   -0.5136 O   0  0  0  0  0  0  0  0  0  0  0  0
    2.9466   -2.1692   -0.3723 O   0  0  0  0  0  0  0  0  0  0  0  0
   -2.9494    2.1624    0.6485 O   0  0  0  0  0  0  0  0  0  0  0  0
    6.7784   -0.3188   -0.8712 O   0  0  0  0  0  0  0  0  0  0  0  0
   -5.9825   -0.2947   -1.7260 O   0  0  0  0  0  0  0  0  0  0  0  0
    1.2904   -0.5293    0.1305 C   0  0  0  0  0  0  0  0  0  0  0  0
   -1.2905    0.5298    0.1314 C   0  0  0  0  0  0  0  0  0  0  0  0
    0.1866   -1.3821    0.1311 C   0  0  0  0  0  0  0  0  0  0  0  0
   -1.1039   -0.8526    0.1315 C   0  0  0  0  0  0  0  0  0  0  0  0
    1.1037    0.8530    0.1304 C   0  0  0  0  0  0  0  0  0  0  0  0
   -0.1867    1.3826    0.1310 C   0  0  0  0  0  0  0  0  0  0  0  0
    2.6356   -1.0816    0.1313 C   0  0  0  0  0  0  0  0  0  0  0  0
   -2.6356    1.0817    0.1316 C   0  0  0  0  0  0  0  0  0  0  0  0
    4.6110    0.2470   -0.0266 C   0  0  0  0  0  0  0  0  0  0  0  0
   -4.6304   -0.2225    0.2483 C   0  0  0  0  0  0  0  0  0  0  0  0
    5.6887   -0.8172   -0.1048 C   0  0  0  0  0  0  0  0  0  0  0  0
   -5.9167    0.2391   -0.4092 C   0  0  0  0  0  0  0  0  0  0  0  0
    0.3104   -2.4619    0.1314 H   0  0  0  0  0  0  0  0  0  0  0  0
   -1.9332   -1.5543    0.1317 H   0  0  0  0  0  0  0  0  0  0  0  0
    1.9330    1.5547    0.1300 H   0  0  0  0  0  0  0  0  0  0  0  0
   -0.3105    2.4624    0.1308 H   0  0  0  0  0  0  0  0  0  0  0  0
    4.2542    0.4917   -1.0329 H   0  0  0  0  0  0  0  0  0  0  0  0
    5.0062    1.1488    0.4548 H   0  0  0  0  0  0  0  0  0  0  0  0
   -4.6015   -1.3166    0.2889 H   0  0  0  0  0  0  0  0  0  0  0  0
   -4.5611    0.1889    1.2617 H   0  0  0  0  0  0  0  0  0  0  0  0
    5.3148   -1.7326   -0.5720 H   0  0  0  0  0  0  0  0  0  0  0  0
    6.0724   -1.0552    0.8917 H   0  0  0  0  0  0  0  0  0  0  0  0
   -5.9547    1.3299   -0.4741 H   0  0  0  0  0  0  0  0  0  0  0  0
   -6.7931   -0.1175    0.1409 H   0  0  0  0  0  0  0  0  0  0  0  0
    6.4444   -0.1240   -1.7635 H   0  0  0  0  0  0  0  0  0  0  0  0
   -5.9337   -1.2630   -1.6510 H   0  0  0  0  0  0  0  0  0  0  0  0
  1 13  1  0  0  0  0
  1 15  1  0  0  0  0
  2 14  1  0  0  0  0
  2 16  1  0  0  0  0
  3 13  2  0  0  0  0
  4 14  2  0  0  0  0
  5 17  1  0  0  0  0
  5 31  1  0  0  0  0
  6 18  1  0  0  0  0
  6 32  1  0  0  0  0
  7  9  2  0  0  0  0
  7 11  1  0  0  0  0
  7 13  1  0  0  0  0
  8 10  2  0  0  0  0
  8 12  1  0  0  0  0
  8 14  1  0  0  0  0
  9 10  1  0  0  0  0
  9 19  1  0  0  0  0
 10 20  1  0  0  0  0
 11 12  2  0  0  0  0
 11 21  1  0  0  0  0
 12 22  1  0  0  0  0
 15 17  1  0  0  0  0
 15 23  1  0  0  0  0
 15 24  1  0  0  0  0
 16 18  1  0  0  0  0
 16 25  1  0  0  0  0
 16 26  1  0  0  0  0
 17 27  1  0  0  0  0
 17 28  1  0  0  0  0
 18 29  1  0  0  0  0
 18 30  1  0  0  0  0
M  END
>  <PUBCHEM_COMPOUND_CID>
13739

>  <PUBCHEM_CONFORMER_RMSD>
0.8

>  <PUBCHEM_CONFORMER_DIVERSEORDER>
1
57
49
30
42
33
44
14
53
22
19
10
12
45
3
41
11
32
40
15
36
55
29
9
38
4
58
17
37
43
52
24
51
35
20
56
31
39
16
2
21
23
28
34
26
18
25
5
46
47
6
48
8
13
50
7
27
54

>  <PUBCHEM_MMFF94_PARTIAL_CHARGES>
24
1 -0.43
10 -0.15
11 -0.15
12 -0.15
13 0.63
14 0.63
15 0.28
16 0.28
17 0.28
18 0.28
19 0.15
2 -0.43
20 0.15
21 0.15
22 0.15
3 -0.57
31 0.4
32 0.4
4 -0.57
5 -0.68
6 -0.68
7 0.09
8 0.09
9 -0.15

>  <PUBCHEM_EFFECTIVE_ROTOR_COUNT>
8

>  <PUBCHEM_PHARMACOPHORE_FEATURES>
7
1 3 acceptor
1 4 acceptor
1 5 acceptor
1 5 donor
1 6 acceptor
1 6 donor
6 7 8 9 10 11 12 rings

>  <PUBCHEM_HEAVY_ATOM_COUNT>
18

>  <PUBCHEM_ATOM_DEF_STEREO_COUNT>
0

>  <PUBCHEM_ATOM_UDEF_STEREO_COUNT>
0

>  <PUBCHEM_BOND_DEF_STEREO_COUNT>
0

>  <PUBCHEM_BOND_UDEF_STEREO_COUNT>
0

>  <PUBCHEM_ISOTOPIC_ATOM_COUNT>
0

>  <PUBCHEM_COMPONENT_COUNT>
1

>  <PUBCHEM_CACTVS_TAUTO_COUNT>
1

>  <PUBCHEM_CONFORMER_ID>
000035AB00000001

>  <PUBCHEM_MMFF94_ENERGY>
44.2295

>  <PUBCHEM_FEATURE_SELFOVERLAP>
35.523

>  <PUBCHEM_SHAPE_FINGERPRINT>
10968037 39 18410012152543713039
11089746 13 12540695946557521839
11806522 49 18410009918986535353
12236239 1 18410855447243259972
13533116 47 16660916683113605170
13862211 1 18410006628598832378
14251718 22 18411136939420945249
14251732 16 18410855494493175089
14528608 73 18409733958879929100
14787075 74 18409729560226607264
15196674 1 18338516313804112001
17834072 33 18412824698380719020
19489759 90 14418129604479230181
200 152 18412260623910614371
20645477 70 18199752449496498934
21267235 1 18412550889973548114
221490 88 18263928916185329587
23272321 79 18409451383816681488
23402539 116 18335415751807977061
23402655 69 18339074883518801269
23559900 14 18262797501097503721
34797466 226 17203614826284060588
350125 39 18411983563781164433
3545911 37 18410577275887755602
4325135 7 18410855468718096782
4340502 62 16732706042963078794
4463277 17 18412265021635592889
474 4 17676779746965951636
474229 33 18411136935353240571
5104073 3 18266741281369621474
7062679 117 18341894121495265503

>  <PUBCHEM_SHAPE_MULTIPOLES>
335.22
13.61
1.83
0.69
0
0
-0.08
0
-1.87
0
-0.09
0
0
-0.86

>  <PUBCHEM_SHAPE_SELFOVERLAP>
687.263

>  <PUBCHEM_SHAPE_VOLUME>
192.6

>  <PUBCHEM_COORDINATE_TYPE>
2
5
10

$$$$
13739
 OpenBabel11092011363D

 32 32  0  0  0  0  0  0  0  0999 V2000
    3.5844   -0.0957    0.1288 O   0  0  0  0  0  0  0  0  0  0  0  0
   -3.5178    0.2583   -0.5136 O   0  0  0  0  0  0  0  0  0  0  0  0
    2.8958   -2.2922    0.1329 O   0  0  0  0  0  0  0  0  0  0  0  0
   -2.9494    2.1624    0.6485 O   0  0  0  0  0  0  0  0  0  0  0  0
    5.0163   -2.4147    0.7787 O   0  0  0  0  0  0  0  0  0  0  0  0
   -6.9249    0.8002    0.6561 O   0  0  0  0  0  0  0  0  0  0  0  0
    1.2904   -0.5293    0.1305 C   0  0  0  0  0  0  0  0  0  0  0  0
   -1.2905    0.5298    0.1314 C   0  0  0  0  0  0  0  0  0  0  0  0
    0.1866   -1.3821    0.1311 C   0  0  0  0  0  0  0  0  0  0  0  0
   -1.1039   -0.8526    0.1315 C   0  0  0  0  0  0  0  0  0  0  0  0
    1.1037    0.8530    0.1304 C   0  0  0  0  0  0  0  0  0  0  0  0
   -0.1867    1.3826    0.1310 C   0  0  0  0  0  0  0  0  0  0  0  0
    2.6356   -1.0816    0.1313 C   0  0  0  0  0  0  0  0  0  0  0  0
   -2.6356    1.0817    0.1316 C   0  0  0  0  0  0  0  0  0  0  0  0
    4.8327   -0.4006   -0.5021 C   0  0  0  0  0  0  0  0  0  0  0  0
   -4.8792    0.6956   -0.5831 C   0  0  0  0  0  0  0  0  0  0  0  0
    5.6894   -1.2034    0.4579 C   0  0  0  0  0  0  0  0  0  0  0  0
   -5.5678    0.3807    0.7309 C   0  0  0  0  0  0  0  0  0  0  0  0
    0.3104   -2.4619    0.1314 H   0  0  0  0  0  0  0  0  0  0  0  0
   -1.9332   -1.5543    0.1317 H   0  0  0  0  0  0  0  0  0  0  0  0
    1.9330    1.5547    0.1300 H   0  0  0  0  0  0  0  0  0  0  0  0
   -0.3105    2.4624    0.1308 H   0  0  0  0  0  0  0  0  0  0  0  0
    4.6493   -0.9803   -1.4132 H   0  0  0  0  0  0  0  0  0  0  0  0
    5.3336    0.5404   -0.7573 H   0  0  0  0  0  0  0  0  0  0  0  0
   -4.9087    1.7739   -0.7731 H   0  0  0  0  0  0  0  0  0  0  0  0
   -5.3745    0.1605   -1.4013 H   0  0  0  0  0  0  0  0  0  0  0  0
    5.8837   -0.6497    1.3807 H   0  0  0  0  0  0  0  0  0  0  0  0
    6.6432   -1.4729   -0.0052 H   0  0  0  0  0  0  0  0  0  0  0  0
   -5.0872    0.9051    1.5613 H   0  0  0  0  0  0  0  0  0  0  0  0
   -5.5604   -0.6946    0.9345 H   0  0  0  0  0  0  0  0  0  0  0  0
    4.1761   -2.1785    1.2077 H   0  0  0  0  0  0  0  0  0  0  0  0
   -7.3329    0.3355   -0.0945 H   0  0  0  0  0  0  0  0  0  0  0  0
  1 13  1  0  0  0  0
  1 15  1  0  0  0  0
  2 14  1  0  0  0  0
  2 16  1  0  0  0  0
  3 13  2  0  0  0  0
  4 14  2  0  0  0  0
  5 17  1  0  0  0  0
  5 31  1  0  0  0  0
  6 18  1  0  0  0  0
  6 32  1  0  0  0  0
  7  9  2  0  0  0  0
  7 11  1  0  0  0  0
  7 13  1  0  0  0  0
  8 10  2  0  0  0  0
  8 12  1  0  0  0  0
  8 14  1  0  0  0  0
  9 10  1  0  0  0  0
  9 19  1  0  0  0  0
 10 20  1  0  0  0  0
 11 12  2  0  0  0  0
 11 21  1  0  0  0  0
 12 22  1  0  0  0  0
 15 17  1  0  0  0  0
 15 23  1  0  0  0  0
 15 24  1  0  0  0  0
 16 18  1  0  0  0  0
 16 25  1  0  0  0  0
 16 26  1  0  0  0  0
 17 27  1  0  0  0  0
 17 28  1  0  0  0  0
 18 29  1  0  0  0  0
 18 30  1  0  0  0  0
M  END
>  <PUBCHEM_COMPOUND_CID>
13739

>  <PUBCHEM_CONFORMER_RMSD>
0.8

>  <PUBCHEM_CONFORMER_DIVERSEORDER>
1
57
49
30
42
33
44
14
53
22
19
10
12
45
3
41
11
32
40
15
36
55
29
9
38
4
58
17
37
43
52
24
51
35
20
56
31
39
16
2
21
23
28
34
26
18
25
5
46
47
6
48
8
13
50
7
27
54

>  <PUBCHEM_MMFF94_PARTIAL_CHARGES>
24
1 -0.43
10 -0.15
11 -0.15
12 -0.15
13 0.63
14 0.63
15 0.28
16 0.28
17 0.28
18 0.28
19 0.15
2 -0.43
20 0.15
21 0.15
22 0.15
3 -0.57
31 0.4
32 0.4
4 -0.57
5 -0.68
6 -0.68
7 0.09
8 0.09
9 -0.15

>  <PUBCHEM_EFFECTIVE_ROTOR_COUNT>
8

>  <PUBCHEM_PHARMACOPHORE_FEATURES>
7
1 3 acceptor
1 4 acceptor
1 5 acceptor
1 5 donor
1 6 acceptor
1 6 donor
6 7 8 9 10 11 12 rings

>  <PUBCHEM_HEAVY_ATOM_COUNT>
18

>  <PUBCHEM_ATOM_DEF_STEREO_COUNT>
0

>  <PUBCHEM_ATOM_UDEF_STEREO_COUNT>
0

>  <PUBCHEM_BOND_DEF_STEREO_COUNT>
0

>  <PUBCHEM_BOND_UDEF_STEREO_COUNT>
0

>  <PUBCHEM_ISOTOPIC_ATOM_COUNT>
0

>  <PUBCHEM_COMPONENT_COUNT>
1

>  <PUBCHEM_CACTVS_TAUTO_COUNT>
1

>  <PUBCHEM_CONFORMER_ID>
000035AB00000001

>  <PUBCHEM_MMFF94_ENERGY>
44.2295

>  <PUBCHEM_FEATURE_SELFOVERLAP>
35.523

>  <PUBCHEM_SHAPE_FINGERPRINT>
10968037 39 18410012152543713039
11089746 13 12540695946557521839
11806522 49 18410009918986535353
12236239 1 18410855447243259972
13533116 47 16660916683113605170
13862211 1 18410006628598832378
14251718 22 18411136939420945249
14251732 16 18410855494493175089
14528608 73 18409733958879929100
14787075 74 18409729560226607264
15196674 1 18338516313804112001
17834072 33 18412824698380719020
19489759 90 14418129604479230181
200 152 18412260623910614371
20645477 70 18199752449496498934
21267235 1 18412550889973548114
221490 88 18263928916185329587
23272321 79 18409451383816681488
23402539 116 18335415751807977061
23402655 69 18339074883518801269
23559900 14 18262797501097503721
34797466 226 17203614826284060588
350125 39 18411983563781164433
3545911 37 18410577275887755602
4325135 7 18410855468718096782
4340502 62 16732706042963078794
4463277 17 18412265021635592889
474 4 17676779746965951636
474229 33 18411136935353240571
5104073 3 18266741281369621474
7062679 117 18341894121495265503

>  <PUBCHEM_SHAPE_MULTIPOLES>
335.22
13.61
1.83
0.69
0
0
-0.08
0
-1.87
0
-0.09
0
0
-0.86

>  <PUBCHEM_SHAPE_SELFOVERLAP>
687.263

>  <PUBCHEM_SHAPE_VOLUME>
192.6

>  <PUBCHEM_COORDINATE_TYPE>
2
5
10

$$$$
13739
 OpenBabel11092011363D

 32 32  0  0  0  0  0  0  0  0999 V2000
    2.6843   -2.2870    0.7769 O   0  0  0  0  0  0  0  0  0  0  0  0
   -2.6184    2.4500    0.1343 O   0  0  0  0  0  0  0  0  0  0  0  0
    3.6183   -0.5333   -0.3854 O   0  0  0  0  0  0  0  0  0  0  0  0
   -3.6715    0.4029    0.1307 O   0  0  0  0  0  0  0  0  0  0  0  0
    5.3971   -2.9800    0.6698 O   0  0  0  0  0  0  0  0  0  0  0  0
   -2.9653    3.7801   -3.2391 O   0  0  0  0  0  0  0  0  0  0  0  0
    1.2904   -0.5293    0.1305 C   0  0  0  0  0  0  0  0  0  0  0  0
   -1.2905    0.5298    0.1314 C   0  0  0  0  0  0  0  0  0  0  0  0
    0.1866   -1.3821    0.1311 C   0  0  0  0  0  0  0  0  0  0  0  0
   -1.1039   -0.8526    0.1315 C   0  0  0  0  0  0  0  0  0  0  0  0
    1.1037    0.8530    0.1304 C   0  0  0  0  0  0  0  0  0  0  0  0
   -0.1867    1.3826    0.1310 C   0  0  0  0  0  0  0  0  0  0  0  0
    2.6356   -1.0816    0.1313 C   0  0  0  0  0  0  0  0  0  0  0  0
   -2.6356    1.0817    0.1316 C   0  0  0  0  0  0  0  0  0  0  0  0
    3.1353   -3.4116    0.0146 C   0  0  0  0  0  0  0  0  0  0  0  0
   -3.2642    3.1077   -0.9611 C   0  0  0  0  0  0  0  0  0  0  0  0
    4.5516   -3.1512   -0.4611 C   0  0  0  0  0  0  0  0  0  0  0  0
   -2.3301    3.1122   -2.1558 C   0  0  0  0  0  0  0  0  0  0  0  0
    0.3104   -2.4619    0.1314 H   0  0  0  0  0  0  0  0  0  0  0  0
   -1.9332   -1.5543    0.1317 H   0  0  0  0  0  0  0  0  0  0  0  0
    1.9330    1.5547    0.1300 H   0  0  0  0  0  0  0  0  0  0  0  0
   -0.3105    2.4624    0.1308 H   0  0  0  0  0  0  0  0  0  0  0  0
    3.1110   -4.3103    0.6405 H   0  0  0  0  0  0  0  0  0  0  0  0
    2.4671   -3.5413   -0.8445 H   0  0  0  0  0  0  0  0  0  0  0  0
   -4.1906    2.5795   -1.2111 H   0  0  0  0  0  0  0  0  0  0  0  0
   -3.4926    4.1371   -0.6623 H   0  0  0  0  0  0  0  0  0  0  0  0
    4.6064   -2.2544   -1.0848 H   0  0  0  0  0  0  0  0  0  0  0  0
    4.9340   -4.0050   -1.0282 H   0  0  0  0  0  0  0  0  0  0  0  0
   -2.0892    2.0928   -2.4693 H   0  0  0  0  0  0  0  0  0  0  0  0
   -1.4018    3.6464   -1.9310 H   0  0  0  0  0  0  0  0  0  0  0  0
    5.0707   -2.2098    1.1659 H   0  0  0  0  0  0  0  0  0  0  0  0
   -3.1847    4.6789   -2.9394 H   0  0  0  0  0  0  0  0  0  0  0  0
  1 13  1  0  0  0  0
  1 15  1  0  0  0  0
  2 14  1  0  0  0  0
  2 16  1  0  0  0  0
  3 13  2  0  0  0  0
  4 14  2  0  0  0  0
  5 17  1  0  0  0  0
  5 31  1  0  0  0  0
  6 18  1  0  0  0  0
  6 32  1  0  0  0  0
  7  9  2  0  0  0  0
  7 11  1  0  0  0  0
  7 13  1  0  0  0  0
  8 10  2  0  0  0  0
  8 12  1  0  0  0  0
  8 14  1  0  0  0  0
  9 10  1  0  0  0  0
  9 19  1  0  0  0  0
 10 20  1  0  0  0  0
 11 12  2  0  0  0  0
 11 21  1  0  0  0  0
 12 22  1  0  0  0  0
 15 17  1  0  0  0  0
 15 23  1  0  0  0  0
 15 24  1  0  0  0  0
 16 18  1  0  0  0  0
 16 25  1  0  0  0  0
 16 26  1  0  0  0  0
 17 27  1  0  0  0  0
 17 28  1  0  0  0  0
 18 29  1  0  0  0  0
 18 30  1  0  0  0  0
M  END
>  <PUBCHEM_COMPOUND_CID>
13739

>  <PUBCHEM_CONFORMER_RMSD>
0.8

>  <PUBCHEM_CONFORMER_DIVERSEORDER>
1
57
49
30
42
33
44
14
53
22
19
10
12
45
3
41
11
32
40
15
36
55
29
9
38
4
58
17
37
43
52
24
51
35
20
56
31
39
16
2
21
23
28
34
26
18
25
5
46
47
6
48
8
13
50
7
27
54

>  <PUBCHEM_MMFF94_PARTIAL_CHARGES>
24
1 -0.43
10 -0.15
11 -0.15
12 -0.15
13 0.63
14 0.63
15 0.28
16 0.28
17 0.28
18 0.28
19 0.15
2 -0.43
20 0.15
21 0.15
22 0.15
3 -0.57
31 0.4
32 0.4
4 -0.57
5 -0.68
6 -0.68
7 0.09
8 0.09
9 -0.15

>  <PUBCHEM_EFFECTIVE_ROTOR_COUNT>
8

>  <PUBCHEM_PHARMACOPHORE_FEATURES>
7
1 3 acceptor
1 4 acceptor
1 5 acceptor
1 5 donor
1 6 acceptor
1 6 donor
6 7 8 9 10 11 12 rings

>  <PUBCHEM_HEAVY_ATOM_COUNT>
18

>  <PUBCHEM_ATOM_DEF_STEREO_COUNT>
0

>  <PUBCHEM_ATOM_UDEF_STEREO_COUNT>
0

>  <PUBCHEM_BOND_DEF_STEREO_COUNT>
0

>  <PUBCHEM_BOND_UDEF_STEREO_COUNT>
0

>  <PUBCHEM_ISOTOPIC_ATOM_COUNT>
0

>  <PUBCHEM_COMPONENT_COUNT>
1

>  <PUBCHEM_CACTVS_TAUTO_COUNT>
1

>  <PUBCHEM_CONFORMER_ID>
000035AB00000001

>  <PUBCHEM_MMFF94_ENERGY>
44.2295

>  <PUBCHEM_FEATURE_SELFOVERLAP>
35.523

>  <PUBCHEM_SHAPE_FINGERPRINT>
10968037 39 18410012152543713039
11089746 13 12540695946557521839
11806522 49 18410009918986535353
12236239 1 18410855447243259972
13533116 47 16660916683113605170
13862211 1 18410006628598832378
14251718 22 18411136939420945249
14251732 16 18410855494493175089
14528608 73 18409733958879929100
14787075 74 18409729560226607264
15196674 1 18338516313804112001
17834072 33 18412824698380719020
19489759 90 14418129604479230181
200 152 18412260623910614371
20645477 70 18199752449496498934
21267235 1 18412550889973548114
221490 88 18263928916185329587
23272321 79 18409451383816681488
23402539 116 18335415751807977061
23402655 69 18339074883518801269
23559900 14 18262797501097503721
34797466 226 17203614826284060588
350125 39 18411983563781164433
3545911 37 18410577275887755602
4325135 7 18410855468718096782
4340502 62 16732706042963078794
4463277 17 18412265021635592889
474 4 17676779746965951636
474229 33 18411136935353240571
5104073 3 18266741281369621474
7062679 117 18341894121495265503

>  <PUBCHEM_SHAPE_MULTIPOLES>
335.22
13.61
1.83
0.69
0
0
-0.08
0
-1.87
0
-0.09
0
0
-0.86

>  <PUBCHEM_SHAPE_SELFOVERLAP>
687.263

>  <PUBCHEM_SHAPE_VOLUME>
192.6

>  <PUBCHEM_COORDINATE_TYPE>
2
5
10

$$$$
13739
 OpenBabel11092011363D

 32 32  0  0  0  0  0  0  0  0999 V2000
    3.5844   -0.0957    0.1288 O   0  0  0  0  0  0  0  0  0  0  0  0
   -3.5178    0.2583   -0.5136 O   0  0  0  0  0  0  0  0  0  0  0  0
    2.8958   -2.2922    0.1329 O   0  0  0  0  0  0  0  0  0  0  0  0
   -2.9494    2.1624    0.6485 O   0  0  0  0  0  0  0  0  0  0  0  0
    2.9858    1.2922    2.4715 O   0  0  0  0  0  0  0  0  0  0  0  0
   -5.9825   -0.2947   -1.7260 O   0  0  0  0  0  0  0  0  0  0  0  0
    1.2904   -0.5293    0.1305 C   0  0  0  0  0  0  0  0  0  0  0  0
   -1.2905    0.5298    0.1314 C   0  0  0  0  0  0  0  0  0  0  0  0
    0.1866   -1.3821    0.1311 C   0  0  0  0  0  0  0  0  0  0  0  0
   -1.1039   -0.8526    0.1315 C   0  0  0  0  0  0  0  0  0  0  0  0
    1.1037    0.8530    0.1304 C   0  0  0  0  0  0  0  0  0  0  0  0
   -0.1867    1.3826    0.1310 C   0  0  0  0  0  0  0  0  0  0  0  0
    2.6356   -1.0816    0.1313 C   0  0  0  0  0  0  0  0  0  0  0  0
   -2.6356    1.0817    0.1316 C   0  0  0  0  0  0  0  0  0  0  0  0
    4.5030   -0.0788    1.2267 C   0  0  0  0  0  0  0  0  0  0  0  0
   -4.6304   -0.2225    0.2483 C   0  0  0  0  0  0  0  0  0  0  0  0
    3.7261    0.0785    2.5196 C   0  0  0  0  0  0  0  0  0  0  0  0
   -5.9167    0.2391   -0.4092 C   0  0  0  0  0  0  0  0  0  0  0  0
    0.3104   -2.4619    0.1314 H   0  0  0  0  0  0  0  0  0  0  0  0
   -1.9332   -1.5543    0.1317 H   0  0  0  0  0  0  0  0  0  0  0  0
    1.9330    1.5547    0.1300 H   0  0  0  0  0  0  0  0  0  0  0  0
   -0.3105    2.4624    0.1308 H   0  0  0  0  0  0  0  0  0  0  0  0
    5.0694   -1.0162    1.2431 H   0  0  0  0  0  0  0  0  0  0  0  0
    5.1892    0.7655    1.0943 H   0  0  0  0  0  0  0  0  0  0  0  0
   -4.6015   -1.3166    0.2889 H   0  0  0  0  0  0  0  0  0  0  0  0
   -4.5611    0.1889    1.2617 H   0  0  0  0  0  0  0  0  0  0  0  0
    4.3919    0.1024    3.3869 H   0  0  0  0  0  0  0  0  0  0  0  0
    3.0077   -0.7373    2.6427 H   0  0  0  0  0  0  0  0  0  0  0  0
   -5.9547    1.3299   -0.4741 H   0  0  0  0  0  0  0  0  0  0  0  0
   -6.7931   -0.1175    0.1409 H   0  0  0  0  0  0  0  0  0  0  0  0
    3.6233    2.0210    2.3811 H   0  0  0  0  0  0  0  0  0  0  0  0
   -5.9337   -1.2630   -1.6510 H   0  0  0  0  0  0  0  0  0  0  0  0
  1 13  1  0  0  0  0
  1 15  1  0  0  0  0
  2 14  1  0  0  0  0
  2 16  1  0  0  0  0
  3 13  2  0  0  0  0
  4 14  2  0  0  0  0
  5 17  1  0  0  0  0
  5 31  1  0  0  0  0
  6 18  1  0  0  0  0
  6 32  1  0  0  0  0
  7  9  2  0  0  0  0
  7 11  1  0  0  0  0
  7 13  1  0  0  0  0
  8 10  2  0  0  0  0
  8 12  1  0  0  0  0
  8 14  1  0  0  0  0
  9 10  1  0  0  0  0
  9 19  1  0  0  0  0
 10 20  1  0  0  0  0
 11 12  2  0  0  0  0
 11 21  1  0  0  0  0
 12 22  1  0  0  0  0
 15 17  1  0  0  0  0
 15 23  1  0  0  0  0
 15 24  1  0  0  0  0
 16 18  1  0  0  0  0
 16 25  1  0  0  0  0
 16 26  1  0  0  0  0
 17 27  1  0  0  0  0
 17 28  1  0  0  0  0
 18 29  1  0  0  0  0
 18 30  1  0  0  0  0
M  END
>  <PUBCHEM_COMPOUND_CID>
13739

>  <PUBCHEM_CONFORMER_RMSD>
0.8

>  <PUBCHEM_CONFORMER_DIVERSEORDER>
1
57
49
30
42
33
44
14
53
22
19
10
12
45
3
41
11
32
40
15
36
55
29
9
38
4
58
17
37
43
52
24
51
35
20
56
31
39
16
2
21
23
28
34
26
18
25
5
46
47
6
48
8
13
50
7
27
54

>  <PUBCHEM_MMFF94_PARTIAL_CHARGES>
24
1 -0.43
10 -0.15
11 -0.15
12 -0.15
13 0.63
14 0.63
15 0.28
16 0.28
17 0.28
18 0.28
19 0.15
2 -0.43
20 0.15
21 0.15
22 0.15
3 -0.57
31 0.4
32 0.4
4 -0.57
5 -0.68
6 -0.68
7 0.09
8 0.09
9 -0.15

>  <PUBCHEM_EFFECTIVE_ROTOR_COUNT>
8

>  <PUBCHEM_PHARMACOPHORE_FEATURES>
7
1 3 acceptor
1 4 acceptor
1 5 acceptor
1 5 donor
1 6 acceptor
1 6 donor
6 7 8 9 10 11 12 rings

>  <PUBCHEM_HEAVY_ATOM_COUNT>
18

>  <PUBCHEM_ATOM_DEF_STEREO_COUNT>
0

>  <PUBCHEM_ATOM_UDEF_STEREO_COUNT>
0

>  <PUBCHEM_BOND_DEF_STEREO_COUNT>
0

>  <PUBCHEM_BOND_UDEF_STEREO_COUNT>
0

>  <PUBCHEM_ISOTOPIC_ATOM_COUNT>
0

>  <PUBCHEM_COMPONENT_COUNT>
1

>  <PUBCHEM_CACTVS_TAUTO_COUNT>
1

>  <PUBCHEM_CONFORMER_ID>
000035AB00000001

>  <PUBCHEM_MMFF94_ENERGY>
44.2295

>  <PUBCHEM_FEATURE_SELFOVERLAP>
35.523

>  <PUBCHEM_SHAPE_FINGERPRINT>
10968037 39 18410012152543713039
11089746 13 12540695946557521839
11806522 49 18410009918986535353
12236239 1 18410855447243259972
13533116 47 16660916683113605170
13862211 1 18410006628598832378
14251718 22 18411136939420945249
14251732 16 18410855494493175089
14528608 73 18409733958879929100
14787075 74 18409729560226607264
15196674 1 18338516313804112001
17834072 33 18412824698380719020
19489759 90 14418129604479230181
200 152 18412260623910614371
20645477 70 18199752449496498934
21267235 1 18412550889973548114
221490 88 18263928916185329587
23272321 79 18409451383816681488
23402539 116 18335415751807977061
23402655 69 18339074883518801269
23559900 14 18262797501097503721
34797466 226 17203614826284060588
350125 39 18411983563781164433
3545911 37 18410577275887755602
4325135 7 18410855468718096782
4340502 62 16732706042963078794
4463277 17 18412265021635592889
474 4 17676779746965951636
474229 33 18411136935353240571
5104073 3 18266741281369621474
7062679 117 18341894121495265503

>  <PUBCHEM_SHAPE_MULTIPOLES>
335.22
13.61
1.83
0.69
0
0
-0.08
0
-1.87
0
-0.09
0
0
-0.86

>  <PUBCHEM_SHAPE_SELFOVERLAP>
687.263

>  <PUBCHEM_SHAPE_VOLUME>
192.6

>  <PUBCHEM_COORDINATE_TYPE>
2
5
10

$$$$
13739
 OpenBabel11092011363D

 32 32  0  0  0  0  0  0  0  0999 V2000
    3.5213   -0.2484    0.7586 O   0  0  0  0  0  0  0  0  0  0  0  0
   -2.6184    2.4500    0.1343 O   0  0  0  0  0  0  0  0  0  0  0  0
    2.9466   -2.1692   -0.3723 O   0  0  0  0  0  0  0  0  0  0  0  0
   -3.6715    0.4029    0.1307 O   0  0  0  0  0  0  0  0  0  0  0  0
    2.4299   -0.0607    3.3171 O   0  0  0  0  0  0  0  0  0  0  0  0
   -4.2889    4.6056    2.5495 O   0  0  0  0  0  0  0  0  0  0  0  0
    1.2904   -0.5293    0.1305 C   0  0  0  0  0  0  0  0  0  0  0  0
   -1.2905    0.5298    0.1314 C   0  0  0  0  0  0  0  0  0  0  0  0
    0.1866   -1.3821    0.1311 C   0  0  0  0  0  0  0  0  0  0  0  0
   -1.1039   -0.8526    0.1315 C   0  0  0  0  0  0  0  0  0  0  0  0
    1.1037    0.8530    0.1304 C   0  0  0  0  0  0  0  0  0  0  0  0
   -0.1867    1.3826    0.1310 C   0  0  0  0  0  0  0  0  0  0  0  0
    2.6356   -1.0816    0.1313 C   0  0  0  0  0  0  0  0  0  0  0  0
   -2.6356    1.0817    0.1316 C   0  0  0  0  0  0  0  0  0  0  0  0
    4.2156   -0.7778    1.8930 C   0  0  0  0  0  0  0  0  0  0  0  0
   -3.7189    3.1099    0.7693 C   0  0  0  0  0  0  0  0  0  0  0  0
    3.2033   -1.1942    2.9427 C   0  0  0  0  0  0  0  0  0  0  0  0
   -3.1941    3.9627    1.9082 C   0  0  0  0  0  0  0  0  0  0  0  0
    0.3104   -2.4619    0.1314 H   0  0  0  0  0  0  0  0  0  0  0  0
   -1.9332   -1.5543    0.1317 H   0  0  0  0  0  0  0  0  0  0  0  0
    1.9330    1.5547    0.1300 H   0  0  0  0  0  0  0  0  0  0  0  0
   -0.3105    2.4624    0.1308 H   0  0  0  0  0  0  0  0  0  0  0  0
    4.8116   -1.6436    1.5849 H   0  0  0  0  0  0  0  0  0  0  0  0
    4.8747    0.0011    2.2933 H   0  0  0  0  0  0  0  0  0  0  0  0
   -4.2399    3.7386    0.0392 H   0  0  0  0  0  0  0  0  0  0  0  0
   -4.4032    2.3476    1.1587 H   0  0  0  0  0  0  0  0  0  0  0  0
    3.6925   -1.6003    3.8326 H   0  0  0  0  0  0  0  0  0  0  0  0
    2.5130   -1.9421    2.5414 H   0  0  0  0  0  0  0  0  0  0  0  0
   -2.5077    4.7300    1.5399 H   0  0  0  0  0  0  0  0  0  0  0  0
   -2.6796    3.3516    2.6564 H   0  0  0  0  0  0  0  0  0  0  0  0
    3.0386    0.5987    3.6918 H   0  0  0  0  0  0  0  0  0  0  0  0
   -4.8951    3.9106    2.8583 H   0  0  0  0  0  0  0  0  0  0  0  0
  1 13  1  0  0  0  0
  1 15  1  0  0  0  0
  2 14  1  0  0  0  0
  2 16  1  0  0  0  0
  3 13  2  0  0  0  0
  4 14  2  0  0  0  0
  5 17  1  0  0  0  0
  5 31  1  0  0  0  0
  6 18  1  0  0  0  0
  6 32  1  0  0  0  0
  7  9  2  0  0  0  0
  7 11  1  0  0  0  0
  7 13  1  0  0  0  0
  8 10  2  0  0  0  0
  8 12  1  0  0  0  0
  8 14  1  0  0  0  0
  9 10  1  0  0  0  0
  9 19  1  0  0  0  0
 10 20  1  0  0  0  0
 11 12  2  0  0  0  0
 11 21  1  0  0  0  0
 12 22  1  0  0  0  0
 15 17  1  0  0  0  0
 15 23  1  0  0  0  0
 15 24  1  0  0  0  0
 16 18  1  0  0  0  0
 16 25  1  0  0  0  0
 16 26  1  0  0  0  0
 17 27  1  0  0  0  0
 17 28  1  0  0  0  0
 18 29  1  0  0  0  0
 18 30  1  0  0  0  0
M  END
>  <PUBCHEM_COMPOUND_CID>
13739

>  <PUBCHEM_CONFORMER_RMSD>
0.8

>  <PUBCHEM_CONFORMER_DIVERSEORDER>
1
57
49
30
42
33
44
14
53
22
19
10
12
45
3
41
11
32
40
15
36
55
29
9
38
4
58
17
37
43
52
24
51
35
20
56
31
39
16
2
21
23
28
34
26
18
25
5
46
47
6
48
8
13
50
7
27
54

>  <PUBCHEM_MMFF94_PARTIAL_CHARGES>
24
1 -0.43
10 -0.15
11 -0.15
12 -0.15
13 0.63
14 0.63
15 0.28
16 0.28
17 0.28
18 0.28
19 0.15
2 -0.43
20 0.15
21 0.15
22 0.15
3 -0.57
31 0.4
32 0.4
4 -0.57
5 -0.68
6 -0.68
7 0.09
8 0.09
9 -0.15

>  <PUBCHEM_EFFECTIVE_ROTOR_COUNT>
8

>  <PUBCHEM_PHARMACOPHORE_FEATURES>
7
1 3 acceptor
1 4 acceptor
1 5 acceptor
1 5 donor
1 6 acceptor
1 6 donor
6 7 8 9 10 11 12 rings

>  <PUBCHEM_HEAVY_ATOM_COUNT>
18

>  <PUBCHEM_ATOM_DEF_STEREO_COUNT>
0

>  <PUBCHEM_ATOM_UDEF_STEREO_COUNT>
0

>  <PUBCHEM_BOND_DEF_STEREO_COUNT>
0

>  <PUBCHEM_BOND_UDEF_STEREO_COUNT>
0

>  <PUBCHEM_ISOTOPIC_ATOM_COUNT>
0

>  <PUBCHEM_COMPONENT_COUNT>
1

>  <PUBCHEM_CACTVS_TAUTO_COUNT>
1

>  <PUBCHEM_CONFORMER_ID>
000035AB00000001

>  <PUBCHEM_MMFF94_ENERGY>
44.2295

>  <PUBCHEM_FEATURE_SELFOVERLAP>
35.523

>  <PUBCHEM_SHAPE_FINGERPRINT>
10968037 39 18410012152543713039
11089746 13 12540695946557521839
11806522 49 18410009918986535353
12236239 1 18410855447243259972
13533116 47 16660916683113605170
13862211 1 18410006628598832378
14251718 22 18411136939420945249
14251732 16 18410855494493175089
14528608 73 18409733958879929100
14787075 74 18409729560226607264
15196674 1 18338516313804112001
17834072 33 18412824698380719020
19489759 90 14418129604479230181
200 152 18412260623910614371
20645477 70 18199752449496498934
21267235 1 18412550889973548114
221490 88 18263928916185329587
23272321 79 18409451383816681488
23402539 116 18335415751807977061
23402655 69 18339074883518801269
23559900 14 18262797501097503721
34797466 226 17203614826284060588
350125 39 18411983563781164433
3545911 37 18410577275887755602
4325135 7 18410855468718096782
4340502 62 16732706042963078794
4463277 17 18412265021635592889
474 4 17676779746965951636
474229 33 18411136935353240571
5104073 3 18266741281369621474
7062679 117 18341894121495265503

>  <PUBCHEM_SHAPE_MULTIPOLES>
335.22
13.61
1.83
0.69
0
0
-0.08
0
-1.87
0
-0.09
0
0
-0.86

>  <PUBCHEM_SHAPE_SELFOVERLAP>
687.263

>  <PUBCHEM_SHAPE_VOLUME>
192.6

>  <PUBCHEM_COORDINATE_TYPE>
2
5
10

$$$$
13739
 OpenBabel11092011363D

 32 32  0  0  0  0  0  0  0  0999 V2000
    3.5213   -0.2484    0.7586 O   0  0  0  0  0  0  0  0  0  0  0  0
   -2.6184    2.4500    0.1343 O   0  0  0  0  0  0  0  0  0  0  0  0
    2.9466   -2.1692   -0.3723 O   0  0  0  0  0  0  0  0  0  0  0  0
   -3.6715    0.4029    0.1307 O   0  0  0  0  0  0  0  0  0  0  0  0
    5.6378    1.5877    0.7699 O   0  0  0  0  0  0  0  0  0  0  0  0
   -5.2689    1.8056   -0.5063 O   0  0  0  0  0  0  0  0  0  0  0  0
    1.2904   -0.5293    0.1305 C   0  0  0  0  0  0  0  0  0  0  0  0
   -1.2905    0.5298    0.1314 C   0  0  0  0  0  0  0  0  0  0  0  0
    0.1866   -1.3821    0.1311 C   0  0  0  0  0  0  0  0  0  0  0  0
   -1.1039   -0.8526    0.1315 C   0  0  0  0  0  0  0  0  0  0  0  0
    1.1037    0.8530    0.1304 C   0  0  0  0  0  0  0  0  0  0  0  0
   -0.1867    1.3826    0.1310 C   0  0  0  0  0  0  0  0  0  0  0  0
    2.6356   -1.0816    0.1313 C   0  0  0  0  0  0  0  0  0  0  0  0
   -2.6356    1.0817    0.1316 C   0  0  0  0  0  0  0  0  0  0  0  0
    4.8835   -0.6837    0.8249 C   0  0  0  0  0  0  0  0  0  0  0  0
   -3.7189    3.1099    0.7693 C   0  0  0  0  0  0  0  0  0  0  0  0
    5.7620    0.3300    0.1172 C   0  0  0  0  0  0  0  0  0  0  0  0
   -4.8958    3.1404   -0.1866 C   0  0  0  0  0  0  0  0  0  0  0  0
    0.3104   -2.4619    0.1314 H   0  0  0  0  0  0  0  0  0  0  0  0
   -1.9332   -1.5543    0.1317 H   0  0  0  0  0  0  0  0  0  0  0  0
    1.9330    1.5547    0.1300 H   0  0  0  0  0  0  0  0  0  0  0  0
   -0.3105    2.4624    0.1308 H   0  0  0  0  0  0  0  0  0  0  0  0
    5.1873   -0.7736    1.8734 H   0  0  0  0  0  0  0  0  0  0  0  0
    4.9622   -1.6596    0.3322 H   0  0  0  0  0  0  0  0  0  0  0  0
   -3.9916    2.5712    1.6831 H   0  0  0  0  0  0  0  0  0  0  0  0
   -3.4138    4.1327    1.0180 H   0  0  0  0  0  0  0  0  0  0  0  0
    5.4764    0.4444   -0.9323 H   0  0  0  0  0  0  0  0  0  0  0  0
    6.8145    0.0367    0.1715 H   0  0  0  0  0  0  0  0  0  0  0  0
   -4.6356    3.6599   -1.1129 H   0  0  0  0  0  0  0  0  0  0  0  0
   -5.7625    3.6308    0.2674 H   0  0  0  0  0  0  0  0  0  0  0  0
    4.7063    1.8600    0.7067 H   0  0  0  0  0  0  0  0  0  0  0  0
   -5.4834    1.3548    0.3283 H   0  0  0  0  0  0  0  0  0  0  0  0
  1 13  1  0  0  0  0
  1 15  1  0  0  0  0
  2 14  1  0  0  0  0
  2 16  1  0  0  0  0
  3 13  2  0  0  0  0
  4 14  2  0  0  0  0
  5 17  1  0  0  0  0
  5 31  1  0  0  0  0
  6 18  1  0  0  0  0
  6 32  1  0  0  0  0
  7  9  2  0  0  0  0
  7 11  1  0  0  0  0
  7 13  1  0  0  0  0
  8 10  2  0  0  0  0
  8 12  1  0  0  0  0
  8 14  1  0  0  0  0
  9 10  1  0  0  0  0
  9 19  1  0  0  0  0
 10 20  1  0  0  0  0
 11 12  2  0  0  0  0
 11 21  1  0  0  0  0
 12 22  1  0  0  0  0
 15 17  1  0  0  0  0
 15 23  1  0  0  0  0
 15 24  1  0  0  0  0
 16 18  1  0  0  0  0
 16 25  1  0  0  0  0
 16 26  1  0  0  0  0
 17 27  1  0  0  0  0
 17 28  1  0  0  0  0
 18 29  1  0  0  0  0
 18 30  1  0  0  0  0
M  END
>  <PUBCHEM_COMPOUND_CID>
13739

>  <PUBCHEM_CONFORMER_RMSD>
0.8

>  <PUBCHEM_CONFORMER_DIVERSEORDER>
1
57
49
30
42
33
44
14
53
22
19
10
12
45
3
41
11
32
40
15
36
55
29
9
38
4
58
17
37
43
52
24
51
35
20
56
31
39
16
2
21
23
28
34
26
18
25
5
46
47
6
48
8
13
50
7
27
54

>  <PUBCHEM_MMFF94_PARTIAL_CHARGES>
24
1 -0.43
10 -0.15
11 -0.15
12 -0.15
13 0.63
14 0.63
15 0.28
16 0.28
17 0.28
18 0.28
19 0.15
2 -0.43
20 0.15
21 0.15
22 0.15
3 -0.57
31 0.4
32 0.4
4 -0.57
5 -0.68
6 -0.68
7 0.09
8 0.09
9 -0.15

>  <PUBCHEM_EFFECTIVE_ROTOR_COUNT>
8

>  <PUBCHEM_PHARMACOPHORE_FEATURES>
7
1 3 acceptor
1 4 acceptor
1 5 acceptor
1 5 donor
1 6 acceptor
1 6 donor
6 7 8 9 10 11 12 rings

>  <PUBCHEM_HEAVY_ATOM_COUNT>
18

>  <PUBCHEM_ATOM_DEF_STEREO_COUNT>
0

>  <PUBCHEM_ATOM_UDEF_STEREO_COUNT>
0

>  <PUBCHEM_BOND_DEF_STEREO_COUNT>
0

>  <PUBCHEM_BOND_UDEF_STEREO_COUNT>
0

>  <PUBCHEM_ISOTOPIC_ATOM_COUNT>
0

>  <PUBCHEM_COMPONENT_COUNT>
1

>  <PUBCHEM_CACTVS_TAUTO_COUNT>
1

>  <PUBCHEM_CONFORMER_ID>
000035AB00000001

>  <PUBCHEM_MMFF94_ENERGY>
44.2295

>  <PUBCHEM_FEATURE_SELFOVERLAP>
35.523

>  <PUBCHEM_SHAPE_FINGERPRINT>
10968037 39 18410012152543713039
11089746 13 12540695946557521839
11806522 49 18410009918986535353
12236239 1 18410855447243259972
13533116 47 16660916683113605170
13862211 1 18410006628598832378
14251718 22 18411136939420945249
14251732 16 18410855494493175089
14528608 73 18409733958879929100
14787075 74 18409729560226607264
15196674 1 18338516313804112001
17834072 33 18412824698380719020
19489759 90 14418129604479230181
200 152 18412260623910614371
20645477 70 18199752449496498934
21267235 1 18412550889973548114
221490 88 18263928916185329587
23272321 79 18409451383816681488
23402539 116 18335415751807977061
23402655 69 18339074883518801269
23559900 14 18262797501097503721
34797466 226 17203614826284060588
350125 39 18411983563781164433
3545911 37 18410577275887755602
4325135 7 18410855468718096782
4340502 62 16732706042963078794
4463277 17 18412265021635592889
474 4 17676779746965951636
474229 33 18411136935353240571
5104073 3 18266741281369621474
7062679 117 18341894121495265503

>  <PUBCHEM_SHAPE_MULTIPOLES>
335.22
13.61
1.83
0.69
0
0
-0.08
0
-1.87
0
-0.09
0
0
-0.86

>  <PUBCHEM_SHAPE_SELFOVERLAP>
687.263

>  <PUBCHEM_SHAPE_VOLUME>
192.6

>  <PUBCHEM_COORDINATE_TYPE>
2
5
10

$$$$
13739
 OpenBabel11092011363D

 32 32  0  0  0  0  0  0  0  0999 V2000
    3.5844   -0.0957    0.1288 O   0  0  0  0  0  0  0  0  0  0  0  0
   -3.5178    0.2583   -0.5136 O   0  0  0  0  0  0  0  0  0  0  0  0
    2.8958   -2.2922    0.1329 O   0  0  0  0  0  0  0  0  0  0  0  0
   -2.9494    2.1624    0.6485 O   0  0  0  0  0  0  0  0  0  0  0  0
    4.5144   -1.9433   -1.7405 O   0  0  0  0  0  0  0  0  0  0  0  0
   -4.9040    1.0740    1.7807 O   0  0  0  0  0  0  0  0  0  0  0  0
    1.2904   -0.5293    0.1305 C   0  0  0  0  0  0  0  0  0  0  0  0
   -1.2905    0.5298    0.1314 C   0  0  0  0  0  0  0  0  0  0  0  0
    0.1866   -1.3821    0.1311 C   0  0  0  0  0  0  0  0  0  0  0  0
   -1.1039   -0.8526    0.1315 C   0  0  0  0  0  0  0  0  0  0  0  0
    1.1037    0.8530    0.1304 C   0  0  0  0  0  0  0  0  0  0  0  0
   -0.1867    1.3826    0.1310 C   0  0  0  0  0  0  0  0  0  0  0  0
    2.6356   -1.0816    0.1313 C   0  0  0  0  0  0  0  0  0  0  0  0
   -2.6356    1.0817    0.1316 C   0  0  0  0  0  0  0  0  0  0  0  0
    4.9532   -0.5149    0.1298 C   0  0  0  0  0  0  0  0  0  0  0  0
   -4.8792    0.6956   -0.5831 C   0  0  0  0  0  0  0  0  0  0  0  0
    5.3563   -0.8922   -1.2827 C   0  0  0  0  0  0  0  0  0  0  0  0
   -5.5678    0.3807    0.7309 C   0  0  0  0  0  0  0  0  0  0  0  0
    0.3104   -2.4619    0.1314 H   0  0  0  0  0  0  0  0  0  0  0  0
   -1.9332   -1.5543    0.1317 H   0  0  0  0  0  0  0  0  0  0  0  0
    1.9330    1.5547    0.1300 H   0  0  0  0  0  0  0  0  0  0  0  0
   -0.3105    2.4624    0.1308 H   0  0  0  0  0  0  0  0  0  0  0  0
    5.5851    0.3029    0.4926 H   0  0  0  0  0  0  0  0  0  0  0  0
    5.0522   -1.3811    0.7940 H   0  0  0  0  0  0  0  0  0  0  0  0
   -4.9087    1.7739   -0.7731 H   0  0  0  0  0  0  0  0  0  0  0  0
   -5.3745    0.1605   -1.4013 H   0  0  0  0  0  0  0  0  0  0  0  0
    6.3970   -1.2255   -1.3270 H   0  0  0  0  0  0  0  0  0  0  0  0
    5.2223   -0.0466   -1.9637 H   0  0  0  0  0  0  0  0  0  0  0  0
   -5.5324   -0.6909    0.9455 H   0  0  0  0  0  0  0  0  0  0  0  0
   -6.6116    0.7093    0.7201 H   0  0  0  0  0  0  0  0  0  0  0  0
    4.6455   -2.7031   -1.1479 H   0  0  0  0  0  0  0  0  0  0  0  0
   -4.9327    2.0225    1.5675 H   0  0  0  0  0  0  0  0  0  0  0  0
  1 13  1  0  0  0  0
  1 15  1  0  0  0  0
  2 14  1  0  0  0  0
  2 16  1  0  0  0  0
  3 13  2  0  0  0  0
  4 14  2  0  0  0  0
  5 17  1  0  0  0  0
  5 31  1  0  0  0  0
  6 18  1  0  0  0  0
  6 32  1  0  0  0  0
  7  9  2  0  0  0  0
  7 11  1  0  0  0  0
  7 13  1  0  0  0  0
  8 10  2  0  0  0  0
  8 12  1  0  0  0  0
  8 14  1  0  0  0  0
  9 10  1  0  0  0  0
  9 19  1  0  0  0  0
 10 20  1  0  0  0  0
 11 12  2  0  0  0  0
 11 21  1  0  0  0  0
 12 22  1  0  0  0  0
 15 17  1  0  0  0  0
 15 23  1  0  0  0  0
 15 24  1  0  0  0  0
 16 18  1  0  0  0  0
 16 25  1  0  0  0  0
 16 26  1  0  0  0  0
 17 27  1  0  0  0  0
 17 28  1  0  0  0  0
 18 29  1  0  0  0  0
 18 30  1  0  0  0  0
M  END
>  <PUBCHEM_COMPOUND_CID>
13739

>  <PUBCHEM_CONFORMER_RMSD>
0.8

>  <PUBCHEM_CONFORMER_DIVERSEORDER>
1
57
49
30
42
33
44
14
53
22
19
10
12
45
3
41
11
32
40
15
36
55
29
9
38
4
58
17
37
43
52
24
51
35
20
56
31
39
16
2
21
23
28
34
26
18
25
5
46
47
6
48
8
13
50
7
27
54

>  <PUBCHEM_MMFF94_PARTIAL_CHARGES>
24
1 -0.43
10 -0.15
11 -0.15
12 -0.15
13 0.63
14 0.63
15 0.28
16 0.28
17 0.28
18 0.28
19 0.15
2 -0.43
20 0.15
21 0.15
22 0.15
3 -0.57
31 0.4
32 0.4
4 -0.57
5 -0.68
6 -0.68
7 0.09
8 0.09
9 -0.15

>  <PUBCHEM_EFFECTIVE_ROTOR_COUNT>
8

>  <PUBCHEM_PHARMACOPHORE_FEATURES>
7
1 3 acceptor
1 4 acceptor
1 5 acceptor
1 5 donor
1 6 acceptor
1 6 donor
6 7 8 9 10 11 12 rings

>  <PUBCHEM_HEAVY_ATOM_COUNT>
18

>  <PUBCHEM_ATOM_DEF_STEREO_COUNT>
0

>  <PUBCHEM_ATOM_UDEF_STEREO_COUNT>
0

>  <PUBCHEM_BOND_DEF_STEREO_COUNT>
0

>  <PUBCHEM_BOND_UDEF_STEREO_COUNT>
0

>  <PUBCHEM_ISOTOPIC_ATOM_COUNT>
0

>  <PUBCHEM_COMPONENT_COUNT>
1

>  <PUBCHEM_CACTVS_TAUTO_COUNT>
1

>  <PUBCHEM_CONFORMER_ID>
000035AB00000001

>  <PUBCHEM_MMFF94_ENERGY>
44.2295

>  <PUBCHEM_FEATURE_SELFOVERLAP>
35.523

>  <PUBCHEM_SHAPE_FINGERPRINT>
10968037 39 18410012152543713039
11089746 13 12540695946557521839
11806522 49 18410009918986535353
12236239 1 18410855447243259972
13533116 47 16660916683113605170
13862211 1 18410006628598832378
14251718 22 18411136939420945249
14251732 16 18410855494493175089
14528608 73 18409733958879929100
14787075 74 18409729560226607264
15196674 1 18338516313804112001
17834072 33 18412824698380719020
19489759 90 14418129604479230181
200 152 18412260623910614371
20645477 70 18199752449496498934
21267235 1 18412550889973548114
221490 88 18263928916185329587
23272321 79 18409451383816681488
23402539 116 18335415751807977061
23402655 69 18339074883518801269
23559900 14 18262797501097503721
34797466 226 17203614826284060588
350125 39 18411983563781164433
3545911 37 18410577275887755602
4325135 7 18410855468718096782
4340502 62 16732706042963078794
4463277 17 18412265021635592889
474 4 17676779746965951636
474229 33 18411136935353240571
5104073 3 18266741281369621474
7062679 117 18341894121495265503

>  <PUBCHEM_SHAPE_MULTIPOLES>
335.22
13.61
1.83
0.69
0
0
-0.08
0
-1.87
0
-0.09
0
0
-0.86

>  <PUBCHEM_SHAPE_SELFOVERLAP>
687.263

>  <PUBCHEM_SHAPE_VOLUME>
192.6

>  <PUBCHEM_COORDINATE_TYPE>
2
5
10

$$$$
13739
 OpenBabel11092011363D

 32 32  0  0  0  0  0  0  0  0999 V2000
    2.6843   -2.2870    0.7769 O   0  0  0  0  0  0  0  0  0  0  0  0
   -3.5178    0.2583   -0.5136 O   0  0  0  0  0  0  0  0  0  0  0  0
    3.6183   -0.5333   -0.3854 O   0  0  0  0  0  0  0  0  0  0  0  0
   -2.9494    2.1624    0.6485 O   0  0  0  0  0  0  0  0  0  0  0  0
    1.5656   -2.8977   -1.7183 O   0  0  0  0  0  0  0  0  0  0  0  0
   -3.1552   -0.9589    1.9839 O   0  0  0  0  0  0  0  0  0  0  0  0
    1.2904   -0.5293    0.1305 C   0  0  0  0  0  0  0  0  0  0  0  0
   -1.2905    0.5298    0.1314 C   0  0  0  0  0  0  0  0  0  0  0  0
    0.1866   -1.3821    0.1311 C   0  0  0  0  0  0  0  0  0  0  0  0
   -1.1039   -0.8526    0.1315 C   0  0  0  0  0  0  0  0  0  0  0  0
    1.1037    0.8530    0.1304 C   0  0  0  0  0  0  0  0  0  0  0  0
   -0.1867    1.3826    0.1310 C   0  0  0  0  0  0  0  0  0  0  0  0
    2.6356   -1.0816    0.1313 C   0  0  0  0  0  0  0  0  0  0  0  0
   -2.6356    1.0817    0.1316 C   0  0  0  0  0  0  0  0  0  0  0  0
    3.1353   -3.4116    0.0146 C   0  0  0  0  0  0  0  0  0  0  0  0
   -4.6304   -0.2225    0.2483 C   0  0  0  0  0  0  0  0  0  0  0  0
    1.9881   -3.9274   -0.8326 C   0  0  0  0  0  0  0  0  0  0  0  0
   -4.1789   -1.3948    1.0977 C   0  0  0  0  0  0  0  0  0  0  0  0
    0.3104   -2.4619    0.1314 H   0  0  0  0  0  0  0  0  0  0  0  0
   -1.9332   -1.5543    0.1317 H   0  0  0  0  0  0  0  0  0  0  0  0
    1.9330    1.5547    0.1300 H   0  0  0  0  0  0  0  0  0  0  0  0
   -0.3105    2.4624    0.1308 H   0  0  0  0  0  0  0  0  0  0  0  0
    3.9671   -3.1062   -0.6293 H   0  0  0  0  0  0  0  0  0  0  0  0
    3.4716   -4.1909    0.7081 H   0  0  0  0  0  0  0  0  0  0  0  0
   -5.0104    0.5806    0.8889 H   0  0  0  0  0  0  0  0  0  0  0  0
   -5.4138   -0.5453   -0.4468 H   0  0  0  0  0  0  0  0  0  0  0  0
    1.1398   -4.2346   -0.2143 H   0  0  0  0  0  0  0  0  0  0  0  0
    2.3087   -4.7745   -1.4462 H   0  0  0  0  0  0  0  0  0  0  0  0
   -3.7797   -2.1999    0.4748 H   0  0  0  0  0  0  0  0  0  0  0  0
   -5.0023   -1.7856    1.7035 H   0  0  0  0  0  0  0  0  0  0  0  0
    1.2622   -2.1501   -1.1753 H   0  0  0  0  0  0  0  0  0  0  0  0
   -3.5221   -0.2351    2.5198 H   0  0  0  0  0  0  0  0  0  0  0  0
  1 13  1  0  0  0  0
  1 15  1  0  0  0  0
  2 14  1  0  0  0  0
  2 16  1  0  0  0  0
  3 13  2  0  0  0  0
  4 14  2  0  0  0  0
  5 17  1  0  0  0  0
  5 31  1  0  0  0  0
  6 18  1  0  0  0  0
  6 32  1  0  0  0  0
  7  9  2  0  0  0  0
  7 11  1  0  0  0  0
  7 13  1  0  0  0  0
  8 10  2  0  0  0  0
  8 12  1  0  0  0  0
  8 14  1  0  0  0  0
  9 10  1  0  0  0  0
  9 19  1  0  0  0  0
 10 20  1  0  0  0  0
 11 12  2  0  0  0  0
 11 21  1  0  0  0  0
 12 22  1  0  0  0  0
 15 17  1  0  0  0  0
 15 23  1  0  0  0  0
 15 24  1  0  0  0  0
 16 18  1  0  0  0  0
 16 25  1  0  0  0  0
 16 26  1  0  0  0  0
 17 27  1  0  0  0  0
 17 28  1  0  0  0  0
 18 29  1  0  0  0  0
 18 30  1  0  0  0  0
M  END
>  <PUBCHEM_COMPOUND_CID>
13739

>  <PUBCHEM_CONFORMER_RMSD>
0.8

>  <PUBCHEM_CONFORMER_DIVERSEORDER>
1
57
49
30
42
33
44
14
53
22
19
10
12
45
3
41
11
32
40
15
36
55
29
9
38
4
58
17
37
43
52
24
51
35
20
56
31
39
16
2
21
23
28
34
26
18
25
5
46
47
6
48
8
13
50
7
27
54

>  <PUBCHEM_MMFF94_PARTIAL_CHARGES>
24
1 -0.43
10 -0.15
11 -0.15
12 -0.15
13 0.63
14 0.63
15 0.28
16 0.28
17 0.28
18 0.28
19 0.15
2 -0.43
20 0.15
21 0.15
22 0.15
3 -0.57
31 0.4
32 0.4
4 -0.57
5 -0.68
6 -0.68
7 0.09
8 0.09
9 -0.15

>  <PUBCHEM_EFFECTIVE_ROTOR_COUNT>
8

>  <PUBCHEM_PHARMACOPHORE_FEATURES>
7
1 3 acceptor
1 4 acceptor
1 5 acceptor
1 5 donor
1 6 acceptor
1 6 donor
6 7 8 9 10 11 12 rings

>  <PUBCHEM_HEAVY_ATOM_COUNT>
18

>  <PUBCHEM_ATOM_DEF_STEREO_COUNT>
0

>  <PUBCHEM_ATOM_UDEF_STEREO_COUNT>
0

>  <PUBCHEM_BOND_DEF_STEREO_COUNT>
0

>  <PUBCHEM_BOND_UDEF_STEREO_COUNT>
0

>  <PUBCHEM_ISOTOPIC_ATOM_COUNT>
0

>  <PUBCHEM_COMPONENT_COUNT>
1

>  <PUBCHEM_CACTVS_TAUTO_COUNT>
1

>  <PUBCHEM_CONFORMER_ID>
000035AB00000001

>  <PUBCHEM_MMFF94_ENERGY>
44.2295

>  <PUBCHEM_FEATURE_SELFOVERLAP>
35.523

>  <PUBCHEM_SHAPE_FINGERPRINT>
10968037 39 18410012152543713039
11089746 13 12540695946557521839
11806522 49 18410009918986535353
12236239 1 18410855447243259972
13533116 47 16660916683113605170
13862211 1 18410006628598832378
14251718 22 18411136939420945249
14251732 16 18410855494493175089
14528608 73 18409733958879929100
14787075 74 18409729560226607264
15196674 1 18338516313804112001
17834072 33 18412824698380719020
19489759 90 14418129604479230181
200 152 18412260623910614371
20645477 70 18199752449496498934
21267235 1 18412550889973548114
221490 88 18263928916185329587
23272321 79 18409451383816681488
23402539 116 18335415751807977061
23402655 69 18339074883518801269
23559900 14 18262797501097503721
34797466 226 17203614826284060588
350125 39 18411983563781164433
3545911 37 18410577275887755602
4325135 7 18410855468718096782
4340502 62 16732706042963078794
4463277 17 18412265021635592889
474 4 17676779746965951636
474229 33 18411136935353240571
5104073 3 18266741281369621474
7062679 117 18341894121495265503

>  <PUBCHEM_SHAPE_MULTIPOLES>
335.22
13.61
1.83
0.69
0
0
-0.08
0
-1.87
0
-0.09
0
0
-0.86

>  <PUBCHEM_SHAPE_SELFOVERLAP>
687.263

>  <PUBCHEM_SHAPE_VOLUME>
192.6

>  <PUBCHEM_COORDINATE_TYPE>
2
5
10

$$$$
13739
 OpenBabel11092011363D

 32 32  0  0  0  0  0  0  0  0999 V2000
    3.5213   -0.2484    0.7586 O   0  0  0  0  0  0  0  0  0  0  0  0
   -3.5178    0.2583   -0.5136 O   0  0  0  0  0  0  0  0  0  0  0  0
    2.9466   -2.1692   -0.3723 O   0  0  0  0  0  0  0  0  0  0  0  0
   -2.9494    2.1624    0.6485 O   0  0  0  0  0  0  0  0  0  0  0  0
    6.1096    0.6043    1.4099 O   0  0  0  0  0  0  0  0  0  0  0  0
   -5.5400    1.3755   -2.0988 O   0  0  0  0  0  0  0  0  0  0  0  0
    1.2904   -0.5293    0.1305 C   0  0  0  0  0  0  0  0  0  0  0  0
   -1.2905    0.5298    0.1314 C   0  0  0  0  0  0  0  0  0  0  0  0
    0.1866   -1.3821    0.1311 C   0  0  0  0  0  0  0  0  0  0  0  0
   -1.1039   -0.8526    0.1315 C   0  0  0  0  0  0  0  0  0  0  0  0
    1.1037    0.8530    0.1304 C   0  0  0  0  0  0  0  0  0  0  0  0
   -0.1867    1.3826    0.1310 C   0  0  0  0  0  0  0  0  0  0  0  0
    2.6356   -1.0816    0.1313 C   0  0  0  0  0  0  0  0  0  0  0  0
   -2.6356    1.0817    0.1316 C   0  0  0  0  0  0  0  0  0  0  0  0
    4.2156   -0.7778    1.8930 C   0  0  0  0  0  0  0  0  0  0  0  0
   -4.8783    0.2920   -0.0693 C   0  0  0  0  0  0  0  0  0  0  0  0
    5.7071   -0.7436    1.6208 C   0  0  0  0  0  0  0  0  0  0  0  0
   -5.5693    1.4950   -0.6817 C   0  0  0  0  0  0  0  0  0  0  0  0
    0.3104   -2.4619    0.1314 H   0  0  0  0  0  0  0  0  0  0  0  0
   -1.9332   -1.5543    0.1317 H   0  0  0  0  0  0  0  0  0  0  0  0
    1.9330    1.5547    0.1300 H   0  0  0  0  0  0  0  0  0  0  0  0
   -0.3105    2.4624    0.1308 H   0  0  0  0  0  0  0  0  0  0  0  0
    3.9835   -0.1744    2.7773 H   0  0  0  0  0  0  0  0  0  0  0  0
    3.8854   -1.8106    2.0533 H   0  0  0  0  0  0  0  0  0  0  0  0
   -5.3867   -0.6287   -0.3752 H   0  0  0  0  0  0  0  0  0  0  0  0
   -4.8848    0.3744    1.0235 H   0  0  0  0  0  0  0  0  0  0  0  0
    5.9670   -1.3344    0.7378 H   0  0  0  0  0  0  0  0  0  0  0  0
    6.2677   -1.1208    2.4812 H   0  0  0  0  0  0  0  0  0  0  0  0
   -5.0638    2.4230   -0.4007 H   0  0  0  0  0  0  0  0  0  0  0  0
   -6.6174    1.5503   -0.3719 H   0  0  0  0  0  0  0  0  0  0  0  0
    5.6268    0.9364    0.6338 H   0  0  0  0  0  0  0  0  0  0  0  0
   -5.9806    0.5400   -2.3302 H   0  0  0  0  0  0  0  0  0  0  0  0
  1 13  1  0  0  0  0
  1 15  1  0  0  0  0
  2 14  1  0  0  0  0
  2 16  1  0  0  0  0
  3 13  2  0  0  0  0
  4 14  2  0  0  0  0
  5 17  1  0  0  0  0
  5 31  1  0  0  0  0
  6 18  1  0  0  0  0
  6 32  1  0  0  0  0
  7  9  2  0  0  0  0
  7 11  1  0  0  0  0
  7 13  1  0  0  0  0
  8 10  2  0  0  0  0
  8 12  1  0  0  0  0
  8 14  1  0  0  0  0
  9 10  1  0  0  0  0
  9 19  1  0  0  0  0
 10 20  1  0  0  0  0
 11 12  2  0  0  0  0
 11 21  1  0  0  0  0
 12 22  1  0  0  0  0
 15 17  1  0  0  0  0
 15 23  1  0  0  0  0
 15 24  1  0  0  0  0
 16 18  1  0  0  0  0
 16 25  1  0  0  0  0
 16 26  1  0  0  0  0
 17 27  1  0  0  0  0
 17 28  1  0  0  0  0
 18 29  1  0  0  0  0
 18 30  1  0  0  0  0
M  END
>  <PUBCHEM_COMPOUND_CID>
13739

>  <PUBCHEM_CONFORMER_RMSD>
0.8

>  <PUBCHEM_CONFORMER_DIVERSEORDER>
1
57
49
30
42
33
44
14
53
22
19
10
12
45
3
41
11
32
40
15
36
55
29
9
38
4
58
17
37
43
52
24
51
35
20
56
31
39
16
2
21
23
28
34
26
18
25
5
46
47
6
48
8
13
50
7
27
54

>  <PUBCHEM_MMFF94_PARTIAL_CHARGES>
24
1 -0.43
10 -0.15
11 -0.15
12 -0.15
13 0.63
14 0.63
15 0.28
16 0.28
17 0.28
18 0.28
19 0.15
2 -0.43
20 0.15
21 0.15
22 0.15
3 -0.57
31 0.4
32 0.4
4 -0.57
5 -0.68
6 -0.68
7 0.09
8 0.09
9 -0.15

>  <PUBCHEM_EFFECTIVE_ROTOR_COUNT>
8

>  <PUBCHEM_PHARMACOPHORE_FEATURES>
7
1 3 acceptor
1 4 acceptor
1 5 acceptor
1 5 donor
1 6 acceptor
1 6 donor
6 7 8 9 10 11 12 rings

>  <PUBCHEM_HEAVY_ATOM_COUNT>
18

>  <PUBCHEM_ATOM_DEF_STEREO_COUNT>
0

>  <PUBCHEM_ATOM_UDEF_STEREO_COUNT>
0

>  <PUBCHEM_BOND_DEF_STEREO_COUNT>
0

>  <PUBCHEM_BOND_UDEF_STEREO_COUNT>
0

>  <PUBCHEM_ISOTOPIC_ATOM_COUNT>
0

>  <PUBCHEM_COMPONENT_COUNT>
1

>  <PUBCHEM_CACTVS_TAUTO_COUNT>
1

>  <PUBCHEM_CONFORMER_ID>
000035AB00000001

>  <PUBCHEM_MMFF94_ENERGY>
44.2295

>  <PUBCHEM_FEATURE_SELFOVERLAP>
35.523

>  <PUBCHEM_SHAPE_FINGERPRINT>
10968037 39 18410012152543713039
11089746 13 12540695946557521839
11806522 49 18410009918986535353
12236239 1 18410855447243259972
13533116 47 16660916683113605170
13862211 1 18410006628598832378
14251718 22 18411136939420945249
14251732 16 18410855494493175089
14528608 73 18409733958879929100
14787075 74 18409729560226607264
15196674 1 18338516313804112001
17834072 33 18412824698380719020
19489759 90 14418129604479230181
200 152 18412260623910614371
20645477 70 18199752449496498934
21267235 1 18412550889973548114
221490 88 18263928916185329587
23272321 79 18409451383816681488
23402539 116 18335415751807977061
23402655 69 18339074883518801269
23559900 14 18262797501097503721
34797466 226 17203614826284060588
350125 39 18411983563781164433
3545911 37 18410577275887755602
4325135 7 18410855468718096782
4340502 62 16732706042963078794
4463277 17 18412265021635592889
474 4 17676779746965951636
474229 33 18411136935353240571
5104073 3 18266741281369621474
7062679 117 18341894121495265503

>  <PUBCHEM_SHAPE_MULTIPOLES>
335.22
13.61
1.83
0.69
0
0
-0.08
0
-1.87
0
-0.09
0
0
-0.86

>  <PUBCHEM_SHAPE_SELFOVERLAP>
687.263

>  <PUBCHEM_SHAPE_VOLUME>
192.6

>  <PUBCHEM_COORDINATE_TYPE>
2
5
10

$$$$
13739
 OpenBabel11092011363D

 32 32  0  0  0  0  0  0  0  0999 V2000
    3.5844   -0.0957    0.1288 O   0  0  0  0  0  0  0  0  0  0  0  0
   -2.6184    2.4500    0.1343 O   0  0  0  0  0  0  0  0  0  0  0  0
    2.8958   -2.2922    0.1329 O   0  0  0  0  0  0  0  0  0  0  0  0
   -3.6715    0.4029    0.1307 O   0  0  0  0  0  0  0  0  0  0  0  0
    4.3612   -2.4638    1.3786 O   0  0  0  0  0  0  0  0  0  0  0  0
   -5.0332    4.6230   -1.5139 O   0  0  0  0  0  0  0  0  0  0  0  0
    1.2904   -0.5293    0.1305 C   0  0  0  0  0  0  0  0  0  0  0  0
   -1.2905    0.5298    0.1314 C   0  0  0  0  0  0  0  0  0  0  0  0
    0.1866   -1.3821    0.1311 C   0  0  0  0  0  0  0  0  0  0  0  0
   -1.1039   -0.8526    0.1315 C   0  0  0  0  0  0  0  0  0  0  0  0
    1.1037    0.8530    0.1304 C   0  0  0  0  0  0  0  0  0  0  0  0
   -0.1867    1.3826    0.1310 C   0  0  0  0  0  0  0  0  0  0  0  0
    2.6356   -1.0816    0.1313 C   0  0  0  0  0  0  0  0  0  0  0  0
   -2.6356    1.0817    0.1316 C   0  0  0  0  0  0  0  0  0  0  0  0
    4.5030   -0.0788    1.2267 C   0  0  0  0  0  0  0  0  0  0  0  0
   -3.2642    3.1077   -0.9611 C   0  0  0  0  0  0  0  0  0  0  0  0
    5.2765   -1.3832    1.2449 C   0  0  0  0  0  0  0  0  0  0  0  0
   -4.3809    3.9822   -0.4244 C   0  0  0  0  0  0  0  0  0  0  0  0
    0.3104   -2.4619    0.1314 H   0  0  0  0  0  0  0  0  0  0  0  0
   -1.9332   -1.5543    0.1317 H   0  0  0  0  0  0  0  0  0  0  0  0
    1.9330    1.5547    0.1300 H   0  0  0  0  0  0  0  0  0  0  0  0
   -0.3105    2.4624    0.1308 H   0  0  0  0  0  0  0  0  0  0  0  0
    5.1938    0.7634    1.1117 H   0  0  0  0  0  0  0  0  0  0  0  0
    3.9335    0.0345    2.1563 H   0  0  0  0  0  0  0  0  0  0  0  0
   -2.5351    3.7203   -1.5022 H   0  0  0  0  0  0  0  0  0  0  0  0
   -3.6772    2.3441   -1.6300 H   0  0  0  0  0  0  0  0  0  0  0  0
    5.9882   -1.4156    2.0747 H   0  0  0  0  0  0  0  0  0  0  0  0
    5.8166   -1.5275    0.3046 H   0  0  0  0  0  0  0  0  0  0  0  0
   -3.9889    4.7512    0.2469 H   0  0  0  0  0  0  0  0  0  0  0  0
   -5.1280    3.3874    0.1102 H   0  0  0  0  0  0  0  0  0  0  0  0
    3.8926   -2.3484    2.2229 H   0  0  0  0  0  0  0  0  0  0  0  0
   -5.3631    3.9264   -2.1069 H   0  0  0  0  0  0  0  0  0  0  0  0
  1 13  1  0  0  0  0
  1 15  1  0  0  0  0
  2 14  1  0  0  0  0
  2 16  1  0  0  0  0
  3 13  2  0  0  0  0
  4 14  2  0  0  0  0
  5 17  1  0  0  0  0
  5 31  1  0  0  0  0
  6 18  1  0  0  0  0
  6 32  1  0  0  0  0
  7  9  2  0  0  0  0
  7 11  1  0  0  0  0
  7 13  1  0  0  0  0
  8 10  2  0  0  0  0
  8 12  1  0  0  0  0
  8 14  1  0  0  0  0
  9 10  1  0  0  0  0
  9 19  1  0  0  0  0
 10 20  1  0  0  0  0
 11 12  2  0  0  0  0
 11 21  1  0  0  0  0
 12 22  1  0  0  0  0
 15 17  1  0  0  0  0
 15 23  1  0  0  0  0
 15 24  1  0  0  0  0
 16 18  1  0  0  0  0
 16 25  1  0  0  0  0
 16 26  1  0  0  0  0
 17 27  1  0  0  0  0
 17 28  1  0  0  0  0
 18 29  1  0  0  0  0
 18 30  1  0  0  0  0
M  END
>  <PUBCHEM_COMPOUND_CID>
13739

>  <PUBCHEM_CONFORMER_RMSD>
0.8

>  <PUBCHEM_CONFORMER_DIVERSEORDER>
1
57
49
30
42
33
44
14
53
22
19
10
12
45
3
41
11
32
40
15
36
55
29
9
38
4
58
17
37
43
52
24
51
35
20
56
31
39
16
2
21
23
28
34
26
18
25
5
46
47
6
48
8
13
50
7
27
54

>  <PUBCHEM_MMFF94_PARTIAL_CHARGES>
24
1 -0.43
10 -0.15
11 -0.15
12 -0.15
13 0.63
14 0.63
15 0.28
16 0.28
17 0.28
18 0.28
19 0.15
2 -0.43
20 0.15
21 0.15
22 0.15
3 -0.57
31 0.4
32 0.4
4 -0.57
5 -0.68
6 -0.68
7 0.09
8 0.09
9 -0.15

>  <PUBCHEM_EFFECTIVE_ROTOR_COUNT>
8

>  <PUBCHEM_PHARMACOPHORE_FEATURES>
7
1 3 acceptor
1 4 acceptor
1 5 acceptor
1 5 donor
1 6 acceptor
1 6 donor
6 7 8 9 10 11 12 rings

>  <PUBCHEM_HEAVY_ATOM_COUNT>
18

>  <PUBCHEM_ATOM_DEF_STEREO_COUNT>
0

>  <PUBCHEM_ATOM_UDEF_STEREO_COUNT>
0

>  <PUBCHEM_BOND_DEF_STEREO_COUNT>
0

>  <PUBCHEM_BOND_UDEF_STEREO_COUNT>
0

>  <PUBCHEM_ISOTOPIC_ATOM_COUNT>
0

>  <PUBCHEM_COMPONENT_COUNT>
1

>  <PUBCHEM_CACTVS_TAUTO_COUNT>
1

>  <PUBCHEM_CONFORMER_ID>
000035AB00000001

>  <PUBCHEM_MMFF94_ENERGY>
44.2295

>  <PUBCHEM_FEATURE_SELFOVERLAP>
35.523

>  <PUBCHEM_SHAPE_FINGERPRINT>
10968037 39 18410012152543713039
11089746 13 12540695946557521839
11806522 49 18410009918986535353
12236239 1 18410855447243259972
13533116 47 16660916683113605170
13862211 1 18410006628598832378
14251718 22 18411136939420945249
14251732 16 18410855494493175089
14528608 73 18409733958879929100
14787075 74 18409729560226607264
15196674 1 18338516313804112001
17834072 33 18412824698380719020
19489759 90 14418129604479230181
200 152 18412260623910614371
20645477 70 18199752449496498934
21267235 1 18412550889973548114
221490 88 18263928916185329587
23272321 79 18409451383816681488
23402539 116 18335415751807977061
23402655 69 18339074883518801269
23559900 14 18262797501097503721
34797466 226 17203614826284060588
350125 39 18411983563781164433
3545911 37 18410577275887755602
4325135 7 18410855468718096782
4340502 62 16732706042963078794
4463277 17 18412265021635592889
474 4 17676779746965951636
474229 33 18411136935353240571
5104073 3 18266741281369621474
7062679 117 18341894121495265503

>  <PUBCHEM_SHAPE_MULTIPOLES>
335.22
13.61
1.83
0.69
0
0
-0.08
0
-1.87
0
-0.09
0
0
-0.86

>  <PUBCHEM_SHAPE_SELFOVERLAP>
687.263

>  <PUBCHEM_SHAPE_VOLUME>
192.6

>  <PUBCHEM_COORDINATE_TYPE>
2
5
10

$$$$
13739
 OpenBabel11092011363D

 32 32  0  0  0  0  0  0  0  0999 V2000
    2.6843   -2.2870    0.7769 O   0  0  0  0  0  0  0  0  0  0  0  0
   -2.6812    2.2971   -0.4954 O   0  0  0  0  0  0  0  0  0  0  0  0
    3.6183   -0.5333   -0.3854 O   0  0  0  0  0  0  0  0  0  0  0  0
   -3.6208    0.5262    0.6360 O   0  0  0  0  0  0  0  0  0  0  0  0
    4.3166   -4.3053   -0.2404 O   0  0  0  0  0  0  0  0  0  0  0  0
   -5.5011    4.2621    0.7117 O   0  0  0  0  0  0  0  0  0  0  0  0
    1.2904   -0.5293    0.1305 C   0  0  0  0  0  0  0  0  0  0  0  0
   -1.2905    0.5298    0.1314 C   0  0  0  0  0  0  0  0  0  0  0  0
    0.1866   -1.3821    0.1311 C   0  0  0  0  0  0  0  0  0  0  0  0
   -1.1039   -0.8526    0.1315 C   0  0  0  0  0  0  0  0  0  0  0  0
    1.1037    0.8530    0.1304 C   0  0  0  0  0  0  0  0  0  0  0  0
   -0.1867    1.3826    0.1310 C   0  0  0  0  0  0  0  0  0  0  0  0
    2.6356   -1.0816    0.1313 C   0  0  0  0  0  0  0  0  0  0  0  0
   -2.6356    1.0817    0.1316 C   0  0  0  0  0  0  0  0  0  0  0  0
    3.9173   -2.6274    1.4197 C   0  0  0  0  0  0  0  0  0  0  0  0
   -3.9559    2.9460   -0.5576 C   0  0  0  0  0  0  0  0  0  0  0  0
    4.8862   -3.1599    0.3816 C   0  0  0  0  0  0  0  0  0  0  0  0
   -4.2275    3.6312    0.7678 C   0  0  0  0  0  0  0  0  0  0  0  0
    0.3104   -2.4619    0.1314 H   0  0  0  0  0  0  0  0  0  0  0  0
   -1.9332   -1.5543    0.1317 H   0  0  0  0  0  0  0  0  0  0  0  0
    1.9330    1.5547    0.1300 H   0  0  0  0  0  0  0  0  0  0  0  0
   -0.3105    2.4624    0.1308 H   0  0  0  0  0  0  0  0  0  0  0  0
    4.3368   -1.7367    1.8998 H   0  0  0  0  0  0  0  0  0  0  0  0
    3.7162   -3.3948    2.1761 H   0  0  0  0  0  0  0  0  0  0  0  0
   -3.9526    3.6835   -1.3674 H   0  0  0  0  0  0  0  0  0  0  0  0
   -4.7230    2.1871   -0.7493 H   0  0  0  0  0  0  0  0  0  0  0  0
    5.8429   -3.4390    0.8321 H   0  0  0  0  0  0  0  0  0  0  0  0
    5.0629   -2.4171   -0.4018 H   0  0  0  0  0  0  0  0  0  0  0  0
   -3.4715    4.3925    0.9781 H   0  0  0  0  0  0  0  0  0  0  0  0
   -4.2472    2.9095    1.5903 H   0  0  0  0  0  0  0  0  0  0  0  0
    4.1757   -4.9747    0.4508 H   0  0  0  0  0  0  0  0  0  0  0  0
   -6.1587    3.5744    0.5107 H   0  0  0  0  0  0  0  0  0  0  0  0
  1 13  1  0  0  0  0
  1 15  1  0  0  0  0
  2 14  1  0  0  0  0
  2 16  1  0  0  0  0
  3 13  2  0  0  0  0
  4 14  2  0  0  0  0
  5 17  1  0  0  0  0
  5 31  1  0  0  0  0
  6 18  1  0  0  0  0
  6 32  1  0  0  0  0
  7  9  2  0  0  0  0
  7 11  1  0  0  0  0
  7 13  1  0  0  0  0
  8 10  2  0  0  0  0
  8 12  1  0  0  0  0
  8 14  1  0  0  0  0
  9 10  1  0  0  0  0
  9 19  1  0  0  0  0
 10 20  1  0  0  0  0
 11 12  2  0  0  0  0
 11 21  1  0  0  0  0
 12 22  1  0  0  0  0
 15 17  1  0  0  0  0
 15 23  1  0  0  0  0
 15 24  1  0  0  0  0
 16 18  1  0  0  0  0
 16 25  1  0  0  0  0
 16 26  1  0  0  0  0
 17 27  1  0  0  0  0
 17 28  1  0  0  0  0
 18 29  1  0  0  0  0
 18 30  1  0  0  0  0
M  END
>  <PUBCHEM_COMPOUND_CID>
13739

>  <PUBCHEM_CONFORMER_RMSD>
0.8

>  <PUBCHEM_CONFORMER_DIVERSEORDER>
1
57
49
30
42
33
44
14
53
22
19
10
12
45
3
41
11
32
40
15
36
55
29
9
38
4
58
17
37
43
52
24
51
35
20
56
31
39
16
2
21
23
28
34
26
18
25
5
46
47
6
48
8
13
50
7
27
54

>  <PUBCHEM_MMFF94_PARTIAL_CHARGES>
24
1 -0.43
10 -0.15
11 -0.15
12 -0.15
13 0.63
14 0.63
15 0.28
16 0.28
17 0.28
18 0.28
19 0.15
2 -0.43
20 0.15
21 0.15
22 0.15
3 -0.57
31 0.4
32 0.4
4 -0.57
5 -0.68
6 -0.68
7 0.09
8 0.09
9 -0.15

>  <PUBCHEM_EFFECTIVE_ROTOR_COUNT>
8

>  <PUBCHEM_PHARMACOPHORE_FEATURES>
7
1 3 acceptor
1 4 acceptor
1 5 acceptor
1 5 donor
1 6 acceptor
1 6 donor
6 7 8 9 10 11 12 rings

>  <PUBCHEM_HEAVY_ATOM_COUNT>
18

>  <PUBCHEM_ATOM_DEF_STEREO_COUNT>
0

>  <PUBCHEM_ATOM_UDEF_STEREO_COUNT>
0

>  <PUBCHEM_BOND_DEF_STEREO_COUNT>
0

>  <PUBCHEM_BOND_UDEF_STEREO_COUNT>
0

>  <PUBCHEM_ISOTOPIC_ATOM_COUNT>
0

>  <PUBCHEM_COMPONENT_COUNT>
1

>  <PUBCHEM_CACTVS_TAUTO_COUNT>
1

>  <PUBCHEM_CONFORMER_ID>
000035AB00000001

>  <PUBCHEM_MMFF94_ENERGY>
44.2295

>  <PUBCHEM_FEATURE_SELFOVERLAP>
35.523

>  <PUBCHEM_SHAPE_FINGERPRINT>
10968037 39 18410012152543713039
11089746 13 12540695946557521839
11806522 49 18410009918986535353
12236239 1 18410855447243259972
13533116 47 16660916683113605170
13862211 1 18410006628598832378
14251718 22 18411136939420945249
14251732 16 18410855494493175089
14528608 73 18409733958879929100
14787075 74 18409729560226607264
15196674 1 18338516313804112001
17834072 33 18412824698380719020
19489759 90 14418129604479230181
200 152 18412260623910614371
20645477 70 18199752449496498934
21267235 1 18412550889973548114
221490 88 18263928916185329587
23272321 79 18409451383816681488
23402539 116 18335415751807977061
23402655 69 18339074883518801269
23559900 14 18262797501097503721
34797466 226 17203614826284060588
350125 39 18411983563781164433
3545911 37 18410577275887755602
4325135 7 18410855468718096782
4340502 62 16732706042963078794
4463277 17 18412265021635592889
474 4 17676779746965951636
474229 33 18411136935353240571
5104073 3 18266741281369621474
7062679 117 18341894121495265503

>  <PUBCHEM_SHAPE_MULTIPOLES>
335.22
13.61
1.83
0.69
0
0
-0.08
0
-1.87
0
-0.09
0
0
-0.86

>  <PUBCHEM_SHAPE_SELFOVERLAP>
687.263

>  <PUBCHEM_SHAPE_VOLUME>
192.6

>  <PUBCHEM_COORDINATE_TYPE>
2
5
10

$$$$
13739
 OpenBabel11092011363D

 32 32  0  0  0  0  0  0  0  0999 V2000
    2.6843   -2.2870    0.7769 O   0  0  0  0  0  0  0  0  0  0  0  0
   -2.6812    2.2971   -0.4954 O   0  0  0  0  0  0  0  0  0  0  0  0
    3.6183   -0.5333   -0.3854 O   0  0  0  0  0  0  0  0  0  0  0  0
   -3.6208    0.5262    0.6360 O   0  0  0  0  0  0  0  0  0  0  0  0
    3.5522   -2.3276   -1.8868 O   0  0  0  0  0  0  0  0  0  0  0  0
   -5.3723    1.5534   -0.2596 O   0  0  0  0  0  0  0  0  0  0  0  0
    1.2904   -0.5293    0.1305 C   0  0  0  0  0  0  0  0  0  0  0  0
   -1.2905    0.5298    0.1314 C   0  0  0  0  0  0  0  0  0  0  0  0
    0.1866   -1.3821    0.1311 C   0  0  0  0  0  0  0  0  0  0  0  0
   -1.1039   -0.8526    0.1315 C   0  0  0  0  0  0  0  0  0  0  0  0
    1.1037    0.8530    0.1304 C   0  0  0  0  0  0  0  0  0  0  0  0
   -0.1867    1.3826    0.1310 C   0  0  0  0  0  0  0  0  0  0  0  0
    2.6356   -1.0816    0.1313 C   0  0  0  0  0  0  0  0  0  0  0  0
   -2.6356    1.0817    0.1316 C   0  0  0  0  0  0  0  0  0  0  0  0
    3.6740   -3.2203    0.3311 C   0  0  0  0  0  0  0  0  0  0  0  0
   -3.6721    3.2242   -0.0390 C   0  0  0  0  0  0  0  0  0  0  0  0
    3.4380   -3.5295   -1.1348 C   0  0  0  0  0  0  0  0  0  0  0  0
   -5.0077    2.8679   -0.6626 C   0  0  0  0  0  0  0  0  0  0  0  0
    0.3104   -2.4619    0.1314 H   0  0  0  0  0  0  0  0  0  0  0  0
   -1.9332   -1.5543    0.1317 H   0  0  0  0  0  0  0  0  0  0  0  0
    1.9330    1.5547    0.1300 H   0  0  0  0  0  0  0  0  0  0  0  0
   -0.3105    2.4624    0.1308 H   0  0  0  0  0  0  0  0  0  0  0  0
    4.6711   -2.7872    0.4655 H   0  0  0  0  0  0  0  0  0  0  0  0
    3.5849   -4.1351    0.9282 H   0  0  0  0  0  0  0  0  0  0  0  0
   -3.7433    3.1766    1.0530 H   0  0  0  0  0  0  0  0  0  0  0  0
   -3.3732    4.2322   -0.3482 H   0  0  0  0  0  0  0  0  0  0  0  0
    2.4455   -3.9586   -1.2991 H   0  0  0  0  0  0  0  0  0  0  0  0
    4.1947   -4.2237   -1.5119 H   0  0  0  0  0  0  0  0  0  0  0  0
   -4.9503    2.8933   -1.7542 H   0  0  0  0  0  0  0  0  0  0  0  0
   -5.7954    3.5508   -0.3297 H   0  0  0  0  0  0  0  0  0  0  0  0
    2.8681   -1.7151   -1.5664 H   0  0  0  0  0  0  0  0  0  0  0  0
   -5.4054    1.5449    0.7123 H   0  0  0  0  0  0  0  0  0  0  0  0
  1 13  1  0  0  0  0
  1 15  1  0  0  0  0
  2 14  1  0  0  0  0
  2 16  1  0  0  0  0
  3 13  2  0  0  0  0
  4 14  2  0  0  0  0
  5 17  1  0  0  0  0
  5 31  1  0  0  0  0
  6 18  1  0  0  0  0
  6 32  1  0  0  0  0
  7  9  2  0  0  0  0
  7 11  1  0  0  0  0
  7 13  1  0  0  0  0
  8 10  2  0  0  0  0
  8 12  1  0  0  0  0
  8 14  1  0  0  0  0
  9 10  1  0  0  0  0
  9 19  1  0  0  0  0
 10 20  1  0  0  0  0
 11 12  2  0  0  0  0
 11 21  1  0  0  0  0
 12 22  1  0  0  0  0
 15 17  1  0  0  0  0
 15 23  1  0  0  0  0
 15 24  1  0  0  0  0
 16 18  1  0  0  0  0
 16 25  1  0  0  0  0
 16 26  1  0  0  0  0
 17 27  1  0  0  0  0
 17 28  1  0  0  0  0
 18 29  1  0  0  0  0
 18 30  1  0  0  0  0
M  END
>  <PUBCHEM_COMPOUND_CID>
13739

>  <PUBCHEM_CONFORMER_RMSD>
0.8

>  <PUBCHEM_CONFORMER_DIVERSEORDER>
1
57
49
30
42
33
44
14
53
22
19
10
12
45
3
41
11
32
40
15
36
55
29
9
38
4
58
17
37
43
52
24
51
35
20
56
31
39
16
2
21
23
28
34
26
18
25
5
46
47
6
48
8
13
50
7
27
54

>  <PUBCHEM_MMFF94_PARTIAL_CHARGES>
24
1 -0.43
10 -0.15
11 -0.15
12 -0.15
13 0.63
14 0.63
15 0.28
16 0.28
17 0.28
18 0.28
19 0.15
2 -0.43
20 0.15
21 0.15
22 0.15
3 -0.57
31 0.4
32 0.4
4 -0.57
5 -0.68
6 -0.68
7 0.09
8 0.09
9 -0.15

>  <PUBCHEM_EFFECTIVE_ROTOR_COUNT>
8

>  <PUBCHEM_PHARMACOPHORE_FEATURES>
7
1 3 acceptor
1 4 acceptor
1 5 acceptor
1 5 donor
1 6 acceptor
1 6 donor
6 7 8 9 10 11 12 rings

>  <PUBCHEM_HEAVY_ATOM_COUNT>
18

>  <PUBCHEM_ATOM_DEF_STEREO_COUNT>
0

>  <PUBCHEM_ATOM_UDEF_STEREO_COUNT>
0

>  <PUBCHEM_BOND_DEF_STEREO_COUNT>
0

>  <PUBCHEM_BOND_UDEF_STEREO_COUNT>
0

>  <PUBCHEM_ISOTOPIC_ATOM_COUNT>
0

>  <PUBCHEM_COMPONENT_COUNT>
1

>  <PUBCHEM_CACTVS_TAUTO_COUNT>
1

>  <PUBCHEM_CONFORMER_ID>
000035AB00000001

>  <PUBCHEM_MMFF94_ENERGY>
44.2295

>  <PUBCHEM_FEATURE_SELFOVERLAP>
35.523

>  <PUBCHEM_SHAPE_FINGERPRINT>
10968037 39 18410012152543713039
11089746 13 12540695946557521839
11806522 49 18410009918986535353
12236239 1 18410855447243259972
13533116 47 16660916683113605170
13862211 1 18410006628598832378
14251718 22 18411136939420945249
14251732 16 18410855494493175089
14528608 73 18409733958879929100
14787075 74 18409729560226607264
15196674 1 18338516313804112001
17834072 33 18412824698380719020
19489759 90 14418129604479230181
200 152 18412260623910614371
20645477 70 18199752449496498934
21267235 1 18412550889973548114
221490 88 18263928916185329587
23272321 79 18409451383816681488
23402539 116 18335415751807977061
23402655 69 18339074883518801269
23559900 14 18262797501097503721
34797466 226 17203614826284060588
350125 39 18411983563781164433
3545911 37 18410577275887755602
4325135 7 18410855468718096782
4340502 62 16732706042963078794
4463277 17 18412265021635592889
474 4 17676779746965951636
474229 33 18411136935353240571
5104073 3 18266741281369621474
7062679 117 18341894121495265503

>  <PUBCHEM_SHAPE_MULTIPOLES>
335.22
13.61
1.83
0.69
0
0
-0.08
0
-1.87
0
-0.09
0
0
-0.86

>  <PUBCHEM_SHAPE_SELFOVERLAP>
687.263

>  <PUBCHEM_SHAPE_VOLUME>
192.6

>  <PUBCHEM_COORDINATE_TYPE>
2
5
10

$$$$
13739
 OpenBabel11092011363D

 32 32  0  0  0  0  0  0  0  0999 V2000
    3.5213   -0.2484    0.7586 O   0  0  0  0  0  0  0  0  0  0  0  0
   -3.5178    0.2583   -0.5136 O   0  0  0  0  0  0  0  0  0  0  0  0
    2.9466   -2.1692   -0.3723 O   0  0  0  0  0  0  0  0  0  0  0  0
   -2.9494    2.1624    0.6485 O   0  0  0  0  0  0  0  0  0  0  0  0
    4.6351   -2.6002   -0.2422 O   0  0  0  0  0  0  0  0  0  0  0  0
   -5.2185   -1.4932    2.1900 O   0  0  0  0  0  0  0  0  0  0  0  0
    1.2904   -0.5293    0.1305 C   0  0  0  0  0  0  0  0  0  0  0  0
   -1.2905    0.5298    0.1314 C   0  0  0  0  0  0  0  0  0  0  0  0
    0.1866   -1.3821    0.1311 C   0  0  0  0  0  0  0  0  0  0  0  0
   -1.1039   -0.8526    0.1315 C   0  0  0  0  0  0  0  0  0  0  0  0
    1.1037    0.8530    0.1304 C   0  0  0  0  0  0  0  0  0  0  0  0
   -0.1867    1.3826    0.1310 C   0  0  0  0  0  0  0  0  0  0  0  0
    2.6356   -1.0816    0.1313 C   0  0  0  0  0  0  0  0  0  0  0  0
   -2.6356    1.0817    0.1316 C   0  0  0  0  0  0  0  0  0  0  0  0
    4.6413   -0.8628    1.4047 C   0  0  0  0  0  0  0  0  0  0  0  0
   -4.6304   -0.2225    0.2483 C   0  0  0  0  0  0  0  0  0  0  0  0
    5.4575   -1.6150    0.3713 C   0  0  0  0  0  0  0  0  0  0  0  0
   -4.1130   -1.0016    1.4420 C   0  0  0  0  0  0  0  0  0  0  0  0
    0.3104   -2.4619    0.1314 H   0  0  0  0  0  0  0  0  0  0  0  0
   -1.9332   -1.5543    0.1317 H   0  0  0  0  0  0  0  0  0  0  0  0
    1.9330    1.5547    0.1300 H   0  0  0  0  0  0  0  0  0  0  0  0
   -0.3105    2.4624    0.1308 H   0  0  0  0  0  0  0  0  0  0  0  0
    5.2581   -0.0911    1.8781 H   0  0  0  0  0  0  0  0  0  0  0  0
    4.2672   -1.5560    2.1668 H   0  0  0  0  0  0  0  0  0  0  0  0
   -5.2361    0.6249    0.5872 H   0  0  0  0  0  0  0  0  0  0  0  0
   -5.2327   -0.8772   -0.3918 H   0  0  0  0  0  0  0  0  0  0  0  0
    6.3230   -2.1066    0.8245 H   0  0  0  0  0  0  0  0  0  0  0  0
    5.8021   -0.9401   -0.4177 H   0  0  0  0  0  0  0  0  0  0  0  0
   -3.5081   -0.3652    2.0936 H   0  0  0  0  0  0  0  0  0  0  0  0
   -3.5144   -1.8611    1.1251 H   0  0  0  0  0  0  0  0  0  0  0  0
    4.3424   -3.2128    0.4541 H   0  0  0  0  0  0  0  0  0  0  0  0
   -5.7524   -2.0449    1.5931 H   0  0  0  0  0  0  0  0  0  0  0  0
  1 13  1  0  0  0  0
  1 15  1  0  0  0  0
  2 14  1  0  0  0  0
  2 16  1  0  0  0  0
  3 13  2  0  0  0  0
  4 14  2  0  0  0  0
  5 17  1  0  0  0  0
  5 31  1  0  0  0  0
  6 18  1  0  0  0  0
  6 32  1  0  0  0  0
  7  9  2  0  0  0  0
  7 11  1  0  0  0  0
  7 13  1  0  0  0  0
  8 10  2  0  0  0  0
  8 12  1  0  0  0  0
  8 14  1  0  0  0  0
  9 10  1  0  0  0  0
  9 19  1  0  0  0  0
 10 20  1  0  0  0  0
 11 12  2  0  0  0  0
 11 21  1  0  0  0  0
 12 22  1  0  0  0  0
 15 17  1  0  0  0  0
 15 23  1  0  0  0  0
 15 24  1  0  0  0  0
 16 18  1  0  0  0  0
 16 25  1  0  0  0  0
 16 26  1  0  0  0  0
 17 27  1  0  0  0  0
 17 28  1  0  0  0  0
 18 29  1  0  0  0  0
 18 30  1  0  0  0  0
M  END
>  <PUBCHEM_COMPOUND_CID>
13739

>  <PUBCHEM_CONFORMER_RMSD>
0.8

>  <PUBCHEM_CONFORMER_DIVERSEORDER>
1
57
49
30
42
33
44
14
53
22
19
10
12
45
3
41
11
32
40
15
36
55
29
9
38
4
58
17
37
43
52
24
51
35
20
56
31
39
16
2
21
23
28
34
26
18
25
5
46
47
6
48
8
13
50
7
27
54

>  <PUBCHEM_MMFF94_PARTIAL_CHARGES>
24
1 -0.43
10 -0.15
11 -0.15
12 -0.15
13 0.63
14 0.63
15 0.28
16 0.28
17 0.28
18 0.28
19 0.15
2 -0.43
20 0.15
21 0.15
22 0.15
3 -0.57
31 0.4
32 0.4
4 -0.57
5 -0.68
6 -0.68
7 0.09
8 0.09
9 -0.15

>  <PUBCHEM_EFFECTIVE_ROTOR_COUNT>
8

>  <PUBCHEM_PHARMACOPHORE_FEATURES>
7
1 3 acceptor
1 4 acceptor
1 5 acceptor
1 5 donor
1 6 acceptor
1 6 donor
6 7 8 9 10 11 12 rings

>  <PUBCHEM_HEAVY_ATOM_COUNT>
18

>  <PUBCHEM_ATOM_DEF_STEREO_COUNT>
0

>  <PUBCHEM_ATOM_UDEF_STEREO_COUNT>
0

>  <PUBCHEM_BOND_DEF_STEREO_COUNT>
0

>  <PUBCHEM_BOND_UDEF_STEREO_COUNT>
0

>  <PUBCHEM_ISOTOPIC_ATOM_COUNT>
0

>  <PUBCHEM_COMPONENT_COUNT>
1

>  <PUBCHEM_CACTVS_TAUTO_COUNT>
1

>  <PUBCHEM_CONFORMER_ID>
000035AB00000001

>  <PUBCHEM_MMFF94_ENERGY>
44.2295

>  <PUBCHEM_FEATURE_SELFOVERLAP>
35.523

>  <PUBCHEM_SHAPE_FINGERPRINT>
10968037 39 18410012152543713039
11089746 13 12540695946557521839
11806522 49 18410009918986535353
12236239 1 18410855447243259972
13533116 47 16660916683113605170
13862211 1 18410006628598832378
14251718 22 18411136939420945249
14251732 16 18410855494493175089
14528608 73 18409733958879929100
14787075 74 18409729560226607264
15196674 1 18338516313804112001
17834072 33 18412824698380719020
19489759 90 14418129604479230181
200 152 18412260623910614371
20645477 70 18199752449496498934
21267235 1 18412550889973548114
221490 88 18263928916185329587
23272321 79 18409451383816681488
23402539 116 18335415751807977061
23402655 69 18339074883518801269
23559900 14 18262797501097503721
34797466 226 17203614826284060588
350125 39 18411983563781164433
3545911 37 18410577275887755602
4325135 7 18410855468718096782
4340502 62 16732706042963078794
4463277 17 18412265021635592889
474 4 17676779746965951636
474229 33 18411136935353240571
5104073 3 18266741281369621474
7062679 117 18341894121495265503

>  <PUBCHEM_SHAPE_MULTIPOLES>
335.22
13.61
1.83
0.69
0
0
-0.08
0
-1.87
0
-0.09
0
0
-0.86

>  <PUBCHEM_SHAPE_SELFOVERLAP>
687.263

>  <PUBCHEM_SHAPE_VOLUME>
192.6

>  <PUBCHEM_COORDINATE_TYPE>
2
5
10

$$$$
13739
 OpenBabel11092011363D

 32 32  0  0  0  0  0  0  0  0999 V2000
    2.6843   -2.2870    0.7769 O   0  0  0  0  0  0  0  0  0  0  0  0
   -3.5178    0.2583   -0.5136 O   0  0  0  0  0  0  0  0  0  0  0  0
    3.6183   -0.5333   -0.3854 O   0  0  0  0  0  0  0  0  0  0  0  0
   -2.9494    2.1624    0.6485 O   0  0  0  0  0  0  0  0  0  0  0  0
    4.3221   -0.3102    1.8646 O   0  0  0  0  0  0  0  0  0  0  0  0
   -6.2887    2.4568   -1.3847 O   0  0  0  0  0  0  0  0  0  0  0  0
    1.2904   -0.5293    0.1305 C   0  0  0  0  0  0  0  0  0  0  0  0
   -1.2905    0.5298    0.1314 C   0  0  0  0  0  0  0  0  0  0  0  0
    0.1866   -1.3821    0.1311 C   0  0  0  0  0  0  0  0  0  0  0  0
   -1.1039   -0.8526    0.1315 C   0  0  0  0  0  0  0  0  0  0  0  0
    1.1037    0.8530    0.1304 C   0  0  0  0  0  0  0  0  0  0  0  0
   -0.1867    1.3826    0.1310 C   0  0  0  0  0  0  0  0  0  0  0  0
    2.6356   -1.0816    0.1313 C   0  0  0  0  0  0  0  0  0  0  0  0
   -2.6356    1.0817    0.1316 C   0  0  0  0  0  0  0  0  0  0  0  0
    3.9173   -2.6274    1.4197 C   0  0  0  0  0  0  0  0  0  0  0  0
   -4.8792    0.6956   -0.5831 C   0  0  0  0  0  0  0  0  0  0  0  0
    4.2255   -1.5886    2.4808 C   0  0  0  0  0  0  0  0  0  0  0  0
   -4.9380    2.0141   -1.3299 C   0  0  0  0  0  0  0  0  0  0  0  0
    0.3104   -2.4619    0.1314 H   0  0  0  0  0  0  0  0  0  0  0  0
   -1.9332   -1.5543    0.1317 H   0  0  0  0  0  0  0  0  0  0  0  0
    1.9330    1.5547    0.1300 H   0  0  0  0  0  0  0  0  0  0  0  0
   -0.3105    2.4624    0.1308 H   0  0  0  0  0  0  0  0  0  0  0  0
    3.8275   -3.6169    1.8809 H   0  0  0  0  0  0  0  0  0  0  0  0
    4.7118   -2.6421    0.6649 H   0  0  0  0  0  0  0  0  0  0  0  0
   -5.4800   -0.0577   -1.1040 H   0  0  0  0  0  0  0  0  0  0  0  0
   -5.2539    0.8284    0.4382 H   0  0  0  0  0  0  0  0  0  0  0  0
    5.1659   -1.8073    2.9947 H   0  0  0  0  0  0  0  0  0  0  0  0
    3.4191   -1.5354    3.2181 H   0  0  0  0  0  0  0  0  0  0  0  0
   -4.5670    1.9028   -2.3524 H   0  0  0  0  0  0  0  0  0  0  0  0
   -4.3533    2.7854   -0.8190 H   0  0  0  0  0  0  0  0  0  0  0  0
    5.0509   -0.3489    1.2218 H   0  0  0  0  0  0  0  0  0  0  0  0
   -6.6066    2.5373   -0.4692 H   0  0  0  0  0  0  0  0  0  0  0  0
  1 13  1  0  0  0  0
  1 15  1  0  0  0  0
  2 14  1  0  0  0  0
  2 16  1  0  0  0  0
  3 13  2  0  0  0  0
  4 14  2  0  0  0  0
  5 17  1  0  0  0  0
  5 31  1  0  0  0  0
  6 18  1  0  0  0  0
  6 32  1  0  0  0  0
  7  9  2  0  0  0  0
  7 11  1  0  0  0  0
  7 13  1  0  0  0  0
  8 10  2  0  0  0  0
  8 12  1  0  0  0  0
  8 14  1  0  0  0  0
  9 10  1  0  0  0  0
  9 19  1  0  0  0  0
 10 20  1  0  0  0  0
 11 12  2  0  0  0  0
 11 21  1  0  0  0  0
 12 22  1  0  0  0  0
 15 17  1  0  0  0  0
 15 23  1  0  0  0  0
 15 24  1  0  0  0  0
 16 18  1  0  0  0  0
 16 25  1  0  0  0  0
 16 26  1  0  0  0  0
 17 27  1  0  0  0  0
 17 28  1  0  0  0  0
 18 29  1  0  0  0  0
 18 30  1  0  0  0  0
M  END
>  <PUBCHEM_COMPOUND_CID>
13739

>  <PUBCHEM_CONFORMER_RMSD>
0.8

>  <PUBCHEM_CONFORMER_DIVERSEORDER>
1
57
49
30
42
33
44
14
53
22
19
10
12
45
3
41
11
32
40
15
36
55
29
9
38
4
58
17
37
43
52
24
51
35
20
56
31
39
16
2
21
23
28
34
26
18
25
5
46
47
6
48
8
13
50
7
27
54

>  <PUBCHEM_MMFF94_PARTIAL_CHARGES>
24
1 -0.43
10 -0.15
11 -0.15
12 -0.15
13 0.63
14 0.63
15 0.28
16 0.28
17 0.28
18 0.28
19 0.15
2 -0.43
20 0.15
21 0.15
22 0.15
3 -0.57
31 0.4
32 0.4
4 -0.57
5 -0.68
6 -0.68
7 0.09
8 0.09
9 -0.15

>  <PUBCHEM_EFFECTIVE_ROTOR_COUNT>
8

>  <PUBCHEM_PHARMACOPHORE_FEATURES>
7
1 3 acceptor
1 4 acceptor
1 5 acceptor
1 5 donor
1 6 acceptor
1 6 donor
6 7 8 9 10 11 12 rings

>  <PUBCHEM_HEAVY_ATOM_COUNT>
18

>  <PUBCHEM_ATOM_DEF_STEREO_COUNT>
0

>  <PUBCHEM_ATOM_UDEF_STEREO_COUNT>
0

>  <PUBCHEM_BOND_DEF_STEREO_COUNT>
0

>  <PUBCHEM_BOND_UDEF_STEREO_COUNT>
0

>  <PUBCHEM_ISOTOPIC_ATOM_COUNT>
0

>  <PUBCHEM_COMPONENT_COUNT>
1

>  <PUBCHEM_CACTVS_TAUTO_COUNT>
1

>  <PUBCHEM_CONFORMER_ID>
000035AB00000001

>  <PUBCHEM_MMFF94_ENERGY>
44.2295

>  <PUBCHEM_FEATURE_SELFOVERLAP>
35.523

>  <PUBCHEM_SHAPE_FINGERPRINT>
10968037 39 18410012152543713039
11089746 13 12540695946557521839
11806522 49 18410009918986535353
12236239 1 18410855447243259972
13533116 47 16660916683113605170
13862211 1 18410006628598832378
14251718 22 18411136939420945249
14251732 16 18410855494493175089
14528608 73 18409733958879929100
14787075 74 18409729560226607264
15196674 1 18338516313804112001
17834072 33 18412824698380719020
19489759 90 14418129604479230181
200 152 18412260623910614371
20645477 70 18199752449496498934
21267235 1 18412550889973548114
221490 88 18263928916185329587
23272321 79 18409451383816681488
23402539 116 18335415751807977061
23402655 69 18339074883518801269
23559900 14 18262797501097503721
34797466 226 17203614826284060588
350125 39 18411983563781164433
3545911 37 18410577275887755602
4325135 7 18410855468718096782
4340502 62 16732706042963078794
4463277 17 18412265021635592889
474 4 17676779746965951636
474229 33 18411136935353240571
5104073 3 18266741281369621474
7062679 117 18341894121495265503

>  <PUBCHEM_SHAPE_MULTIPOLES>
335.22
13.61
1.83
0.69
0
0
-0.08
0
-1.87
0
-0.09
0
0
-0.86

>  <PUBCHEM_SHAPE_SELFOVERLAP>
687.263

>  <PUBCHEM_SHAPE_VOLUME>
192.6

>  <PUBCHEM_COORDINATE_TYPE>
2
5
10

$$$$
13739
 OpenBabel11092011363D

 32 32  0  0  0  0  0  0  0  0999 V2000
    2.6843   -2.2870    0.7769 O   0  0  0  0  0  0  0  0  0  0  0  0
   -2.6184    2.4500    0.1343 O   0  0  0  0  0  0  0  0  0  0  0  0
    3.6183   -0.5333   -0.3854 O   0  0  0  0  0  0  0  0  0  0  0  0
   -3.6715    0.4029    0.1307 O   0  0  0  0  0  0  0  0  0  0  0  0
    4.4113   -4.4694   -1.5734 O   0  0  0  0  0  0  0  0  0  0  0  0
   -2.5688    3.0357   -2.5910 O   0  0  0  0  0  0  0  0  0  0  0  0
    1.2904   -0.5293    0.1305 C   0  0  0  0  0  0  0  0  0  0  0  0
   -1.2905    0.5298    0.1314 C   0  0  0  0  0  0  0  0  0  0  0  0
    0.1866   -1.3821    0.1311 C   0  0  0  0  0  0  0  0  0  0  0  0
   -1.1039   -0.8526    0.1315 C   0  0  0  0  0  0  0  0  0  0  0  0
    1.1037    0.8530    0.1304 C   0  0  0  0  0  0  0  0  0  0  0  0
   -0.1867    1.3826    0.1310 C   0  0  0  0  0  0  0  0  0  0  0  0
    2.6356   -1.0816    0.1313 C   0  0  0  0  0  0  0  0  0  0  0  0
   -2.6356    1.0817    0.1316 C   0  0  0  0  0  0  0  0  0  0  0  0
    3.6740   -3.2203    0.3311 C   0  0  0  0  0  0  0  0  0  0  0  0
   -3.7211    3.1125   -0.4940 C   0  0  0  0  0  0  0  0  0  0  0  0
    3.4380   -3.5295   -1.1348 C   0  0  0  0  0  0  0  0  0  0  0  0
   -3.7894    2.6886   -1.9485 C   0  0  0  0  0  0  0  0  0  0  0  0
    0.3104   -2.4619    0.1314 H   0  0  0  0  0  0  0  0  0  0  0  0
   -1.9332   -1.5543    0.1317 H   0  0  0  0  0  0  0  0  0  0  0  0
    1.9330    1.5547    0.1300 H   0  0  0  0  0  0  0  0  0  0  0  0
   -0.3105    2.4624    0.1308 H   0  0  0  0  0  0  0  0  0  0  0  0
    4.6711   -2.7872    0.4655 H   0  0  0  0  0  0  0  0  0  0  0  0
    3.5849   -4.1351    0.9282 H   0  0  0  0  0  0  0  0  0  0  0  0
   -4.6508    2.8439    0.0191 H   0  0  0  0  0  0  0  0  0  0  0  0
   -3.5595    4.1944   -0.4280 H   0  0  0  0  0  0  0  0  0  0  0  0
    3.5105   -2.6289   -1.7510 H   0  0  0  0  0  0  0  0  0  0  0  0
    2.4545   -3.9854   -1.2820 H   0  0  0  0  0  0  0  0  0  0  0  0
   -4.6101    3.1928   -2.4660 H   0  0  0  0  0  0  0  0  0  0  0  0
   -3.9200    1.6059   -2.0400 H   0  0  0  0  0  0  0  0  0  0  0  0
    5.2861   -4.0595   -1.4613 H   0  0  0  0  0  0  0  0  0  0  0  0
   -1.8496    2.5908   -2.1107 H   0  0  0  0  0  0  0  0  0  0  0  0
  1 13  1  0  0  0  0
  1 15  1  0  0  0  0
  2 14  1  0  0  0  0
  2 16  1  0  0  0  0
  3 13  2  0  0  0  0
  4 14  2  0  0  0  0
  5 17  1  0  0  0  0
  5 31  1  0  0  0  0
  6 18  1  0  0  0  0
  6 32  1  0  0  0  0
  7  9  2  0  0  0  0
  7 11  1  0  0  0  0
  7 13  1  0  0  0  0
  8 10  2  0  0  0  0
  8 12  1  0  0  0  0
  8 14  1  0  0  0  0
  9 10  1  0  0  0  0
  9 19  1  0  0  0  0
 10 20  1  0  0  0  0
 11 12  2  0  0  0  0
 11 21  1  0  0  0  0
 12 22  1  0  0  0  0
 15 17  1  0  0  0  0
 15 23  1  0  0  0  0
 15 24  1  0  0  0  0
 16 18  1  0  0  0  0
 16 25  1  0  0  0  0
 16 26  1  0  0  0  0
 17 27  1  0  0  0  0
 17 28  1  0  0  0  0
 18 29  1  0  0  0  0
 18 30  1  0  0  0  0
M  END
>  <PUBCHEM_COMPOUND_CID>
13739

>  <PUBCHEM_CONFORMER_RMSD>
0.8

>  <PUBCHEM_CONFORMER_DIVERSEORDER>
1
57
49
30
42
33
44
14
53
22
19
10
12
45
3
41
11
32
40
15
36
55
29
9
38
4
58
17
37
43
52
24
51
35
20
56
31
39
16
2
21
23
28
34
26
18
25
5
46
47
6
48
8
13
50
7
27
54

>  <PUBCHEM_MMFF94_PARTIAL_CHARGES>
24
1 -0.43
10 -0.15
11 -0.15
12 -0.15
13 0.63
14 0.63
15 0.28
16 0.28
17 0.28
18 0.28
19 0.15
2 -0.43
20 0.15
21 0.15
22 0.15
3 -0.57
31 0.4
32 0.4
4 -0.57
5 -0.68
6 -0.68
7 0.09
8 0.09
9 -0.15

>  <PUBCHEM_EFFECTIVE_ROTOR_COUNT>
8

>  <PUBCHEM_PHARMACOPHORE_FEATURES>
7
1 3 acceptor
1 4 acceptor
1 5 acceptor
1 5 donor
1 6 acceptor
1 6 donor
6 7 8 9 10 11 12 rings

>  <PUBCHEM_HEAVY_ATOM_COUNT>
18

>  <PUBCHEM_ATOM_DEF_STEREO_COUNT>
0

>  <PUBCHEM_ATOM_UDEF_STEREO_COUNT>
0

>  <PUBCHEM_BOND_DEF_STEREO_COUNT>
0

>  <PUBCHEM_BOND_UDEF_STEREO_COUNT>
0

>  <PUBCHEM_ISOTOPIC_ATOM_COUNT>
0

>  <PUBCHEM_COMPONENT_COUNT>
1

>  <PUBCHEM_CACTVS_TAUTO_COUNT>
1

>  <PUBCHEM_CONFORMER_ID>
000035AB00000001

>  <PUBCHEM_MMFF94_ENERGY>
44.2295

>  <PUBCHEM_FEATURE_SELFOVERLAP>
35.523

>  <PUBCHEM_SHAPE_FINGERPRINT>
10968037 39 18410012152543713039
11089746 13 12540695946557521839
11806522 49 18410009918986535353
12236239 1 18410855447243259972
13533116 47 16660916683113605170
13862211 1 18410006628598832378
14251718 22 18411136939420945249
14251732 16 18410855494493175089
14528608 73 18409733958879929100
14787075 74 18409729560226607264
15196674 1 18338516313804112001
17834072 33 18412824698380719020
19489759 90 14418129604479230181
200 152 18412260623910614371
20645477 70 18199752449496498934
21267235 1 18412550889973548114
221490 88 18263928916185329587
23272321 79 18409451383816681488
23402539 116 18335415751807977061
23402655 69 18339074883518801269
23559900 14 18262797501097503721
34797466 226 17203614826284060588
350125 39 18411983563781164433
3545911 37 18410577275887755602
4325135 7 18410855468718096782
4340502 62 16732706042963078794
4463277 17 18412265021635592889
474 4 17676779746965951636
474229 33 18411136935353240571
5104073 3 18266741281369621474
7062679 117 18341894121495265503

>  <PUBCHEM_SHAPE_MULTIPOLES>
335.22
13.61
1.83
0.69
0
0
-0.08
0
-1.87
0
-0.09
0
0
-0.86

>  <PUBCHEM_SHAPE_SELFOVERLAP>
687.263

>  <PUBCHEM_SHAPE_VOLUME>
192.6

>  <PUBCHEM_COORDINATE_TYPE>
2
5
10

$$$$
13739
 OpenBabel11092011363D

 32 32  0  0  0  0  0  0  0  0999 V2000
    3.5213   -0.2484    0.7586 O   0  0  0  0  0  0  0  0  0  0  0  0
   -2.6812    2.2971   -0.4954 O   0  0  0  0  0  0  0  0  0  0  0  0
    2.9466   -2.1692   -0.3723 O   0  0  0  0  0  0  0  0  0  0  0  0
   -3.6208    0.5262    0.6360 O   0  0  0  0  0  0  0  0  0  0  0  0
    5.2044    1.8941   -1.6594 O   0  0  0  0  0  0  0  0  0  0  0  0
   -3.2311    0.0917   -2.1338 O   0  0  0  0  0  0  0  0  0  0  0  0
    1.2904   -0.5293    0.1305 C   0  0  0  0  0  0  0  0  0  0  0  0
   -1.2905    0.5298    0.1314 C   0  0  0  0  0  0  0  0  0  0  0  0
    0.1866   -1.3821    0.1311 C   0  0  0  0  0  0  0  0  0  0  0  0
   -1.1039   -0.8526    0.1315 C   0  0  0  0  0  0  0  0  0  0  0  0
    1.1037    0.8530    0.1304 C   0  0  0  0  0  0  0  0  0  0  0  0
   -0.1867    1.3826    0.1310 C   0  0  0  0  0  0  0  0  0  0  0  0
    2.6356   -1.0816    0.1313 C   0  0  0  0  0  0  0  0  0  0  0  0
   -2.6356    1.0817    0.1316 C   0  0  0  0  0  0  0  0  0  0  0  0
    4.6110    0.2470   -0.0266 C   0  0  0  0  0  0  0  0  0  0  0  0
   -3.5508    2.4095   -1.6271 C   0  0  0  0  0  0  0  0  0  0  0  0
    4.1257    1.4124   -0.8671 C   0  0  0  0  0  0  0  0  0  0  0  0
   -3.1276    1.4017   -2.6783 C   0  0  0  0  0  0  0  0  0  0  0  0
    0.3104   -2.4619    0.1314 H   0  0  0  0  0  0  0  0  0  0  0  0
   -1.9332   -1.5543    0.1317 H   0  0  0  0  0  0  0  0  0  0  0  0
    1.9330    1.5547    0.1300 H   0  0  0  0  0  0  0  0  0  0  0  0
   -0.3105    2.4624    0.1308 H   0  0  0  0  0  0  0  0  0  0  0  0
    5.4188    0.5755    0.6362 H   0  0  0  0  0  0  0  0  0  0  0  0
    4.9699   -0.5610   -0.6744 H   0  0  0  0  0  0  0  0  0  0  0  0
   -4.5833    2.2166   -1.3166 H   0  0  0  0  0  0  0  0  0  0  0  0
   -3.4676    3.4254   -2.0296 H   0  0  0  0  0  0  0  0  0  0  0  0
    3.7514    2.2285   -0.2426 H   0  0  0  0  0  0  0  0  0  0  0  0
    3.3343    1.0942   -1.5521 H   0  0  0  0  0  0  0  0  0  0  0  0
   -2.0922    1.5686   -2.9876 H   0  0  0  0  0  0  0  0  0  0  0  0
   -3.7763    1.4508   -3.5584 H   0  0  0  0  0  0  0  0  0  0  0  0
    5.9022    2.1953   -1.0527 H   0  0  0  0  0  0  0  0  0  0  0  0
   -4.1532   -0.0349   -1.8519 H   0  0  0  0  0  0  0  0  0  0  0  0
  1 13  1  0  0  0  0
  1 15  1  0  0  0  0
  2 14  1  0  0  0  0
  2 16  1  0  0  0  0
  3 13  2  0  0  0  0
  4 14  2  0  0  0  0
  5 17  1  0  0  0  0
  5 31  1  0  0  0  0
  6 18  1  0  0  0  0
  6 32  1  0  0  0  0
  7  9  2  0  0  0  0
  7 11  1  0  0  0  0
  7 13  1  0  0  0  0
  8 10  2  0  0  0  0
  8 12  1  0  0  0  0
  8 14  1  0  0  0  0
  9 10  1  0  0  0  0
  9 19  1  0  0  0  0
 10 20  1  0  0  0  0
 11 12  2  0  0  0  0
 11 21  1  0  0  0  0
 12 22  1  0  0  0  0
 15 17  1  0  0  0  0
 15 23  1  0  0  0  0
 15 24  1  0  0  0  0
 16 18  1  0  0  0  0
 16 25  1  0  0  0  0
 16 26  1  0  0  0  0
 17 27  1  0  0  0  0
 17 28  1  0  0  0  0
 18 29  1  0  0  0  0
 18 30  1  0  0  0  0
M  END
>  <PUBCHEM_COMPOUND_CID>
13739

>  <PUBCHEM_CONFORMER_RMSD>
0.8

>  <PUBCHEM_CONFORMER_DIVERSEORDER>
1
57
49
30
42
33
44
14
53
22
19
10
12
45
3
41
11
32
40
15
36
55
29
9
38
4
58
17
37
43
52
24
51
35
20
56
31
39
16
2
21
23
28
34
26
18
25
5
46
47
6
48
8
13
50
7
27
54

>  <PUBCHEM_MMFF94_PARTIAL_CHARGES>
24
1 -0.43
10 -0.15
11 -0.15
12 -0.15
13 0.63
14 0.63
15 0.28
16 0.28
17 0.28
18 0.28
19 0.15
2 -0.43
20 0.15
21 0.15
22 0.15
3 -0.57
31 0.4
32 0.4
4 -0.57
5 -0.68
6 -0.68
7 0.09
8 0.09
9 -0.15

>  <PUBCHEM_EFFECTIVE_ROTOR_COUNT>
8

>  <PUBCHEM_PHARMACOPHORE_FEATURES>
7
1 3 acceptor
1 4 acceptor
1 5 acceptor
1 5 donor
1 6 acceptor
1 6 donor
6 7 8 9 10 11 12 rings

>  <PUBCHEM_HEAVY_ATOM_COUNT>
18

>  <PUBCHEM_ATOM_DEF_STEREO_COUNT>
0

>  <PUBCHEM_ATOM_UDEF_STEREO_COUNT>
0

>  <PUBCHEM_BOND_DEF_STEREO_COUNT>
0

>  <PUBCHEM_BOND_UDEF_STEREO_COUNT>
0

>  <PUBCHEM_ISOTOPIC_ATOM_COUNT>
0

>  <PUBCHEM_COMPONENT_COUNT>
1

>  <PUBCHEM_CACTVS_TAUTO_COUNT>
1

>  <PUBCHEM_CONFORMER_ID>
000035AB00000001

>  <PUBCHEM_MMFF94_ENERGY>
44.2295

>  <PUBCHEM_FEATURE_SELFOVERLAP>
35.523

>  <PUBCHEM_SHAPE_FINGERPRINT>
10968037 39 18410012152543713039
11089746 13 12540695946557521839
11806522 49 18410009918986535353
12236239 1 18410855447243259972
13533116 47 16660916683113605170
13862211 1 18410006628598832378
14251718 22 18411136939420945249
14251732 16 18410855494493175089
14528608 73 18409733958879929100
14787075 74 18409729560226607264
15196674 1 18338516313804112001
17834072 33 18412824698380719020
19489759 90 14418129604479230181
200 152 18412260623910614371
20645477 70 18199752449496498934
21267235 1 18412550889973548114
221490 88 18263928916185329587
23272321 79 18409451383816681488
23402539 116 18335415751807977061
23402655 69 18339074883518801269
23559900 14 18262797501097503721
34797466 226 17203614826284060588
350125 39 18411983563781164433
3545911 37 18410577275887755602
4325135 7 18410855468718096782
4340502 62 16732706042963078794
4463277 17 18412265021635592889
474 4 17676779746965951636
474229 33 18411136935353240571
5104073 3 18266741281369621474
7062679 117 18341894121495265503

>  <PUBCHEM_SHAPE_MULTIPOLES>
335.22
13.61
1.83
0.69
0
0
-0.08
0
-1.87
0
-0.09
0
0
-0.86

>  <PUBCHEM_SHAPE_SELFOVERLAP>
687.263

>  <PUBCHEM_SHAPE_VOLUME>
192.6

>  <PUBCHEM_COORDINATE_TYPE>
2
5
10

$$$$
13739
 OpenBabel11092011363D

 32 32  0  0  0  0  0  0  0  0999 V2000
    2.6843   -2.2870    0.7769 O   0  0  0  0  0  0  0  0  0  0  0  0
   -2.6812    2.2971   -0.4954 O   0  0  0  0  0  0  0  0  0  0  0  0
    3.6183   -0.5333   -0.3854 O   0  0  0  0  0  0  0  0  0  0  0  0
   -3.6208    0.5262    0.6360 O   0  0  0  0  0  0  0  0  0  0  0  0
    4.4432   -1.8201    2.9074 O   0  0  0  0  0  0  0  0  0  0  0  0
   -3.9232    4.7240   -1.1421 O   0  0  0  0  0  0  0  0  0  0  0  0
    1.2904   -0.5293    0.1305 C   0  0  0  0  0  0  0  0  0  0  0  0
   -1.2905    0.5298    0.1314 C   0  0  0  0  0  0  0  0  0  0  0  0
    0.1866   -1.3821    0.1311 C   0  0  0  0  0  0  0  0  0  0  0  0
   -1.1039   -0.8526    0.1315 C   0  0  0  0  0  0  0  0  0  0  0  0
    1.1037    0.8530    0.1304 C   0  0  0  0  0  0  0  0  0  0  0  0
   -0.1867    1.3826    0.1310 C   0  0  0  0  0  0  0  0  0  0  0  0
    2.6356   -1.0816    0.1313 C   0  0  0  0  0  0  0  0  0  0  0  0
   -2.6356    1.0817    0.1316 C   0  0  0  0  0  0  0  0  0  0  0  0
    3.9596   -2.9339    0.8443 C   0  0  0  0  0  0  0  0  0  0  0  0
   -3.5508    2.4095   -1.6271 C   0  0  0  0  0  0  0  0  0  0  0  0
    4.9304   -2.0378    1.5889 C   0  0  0  0  0  0  0  0  0  0  0  0
   -4.5859    3.4829   -1.3512 C   0  0  0  0  0  0  0  0  0  0  0  0
    0.3104   -2.4619    0.1314 H   0  0  0  0  0  0  0  0  0  0  0  0
   -1.9332   -1.5543    0.1317 H   0  0  0  0  0  0  0  0  0  0  0  0
    1.9330    1.5547    0.1300 H   0  0  0  0  0  0  0  0  0  0  0  0
   -0.3105    2.4624    0.1308 H   0  0  0  0  0  0  0  0  0  0  0  0
    3.8566   -3.8901    1.3687 H   0  0  0  0  0  0  0  0  0  0  0  0
    4.3162   -3.1092   -0.1772 H   0  0  0  0  0  0  0  0  0  0  0  0
   -2.9652    2.6723   -2.5146 H   0  0  0  0  0  0  0  0  0  0  0  0
   -4.0465    1.4443   -1.7815 H   0  0  0  0  0  0  0  0  0  0  0  0
    5.0481   -1.0720    1.0894 H   0  0  0  0  0  0  0  0  0  0  0  0
    5.9103   -2.5161    1.6778 H   0  0  0  0  0  0  0  0  0  0  0  0
   -5.1688    3.2453   -0.4571 H   0  0  0  0  0  0  0  0  0  0  0  0
   -5.2660    3.6052   -2.1998 H   0  0  0  0  0  0  0  0  0  0  0  0
    3.5804   -1.3778    2.8318 H   0  0  0  0  0  0  0  0  0  0  0  0
   -3.3997    4.9131   -1.9395 H   0  0  0  0  0  0  0  0  0  0  0  0
  1 13  1  0  0  0  0
  1 15  1  0  0  0  0
  2 14  1  0  0  0  0
  2 16  1  0  0  0  0
  3 13  2  0  0  0  0
  4 14  2  0  0  0  0
  5 17  1  0  0  0  0
  5 31  1  0  0  0  0
  6 18  1  0  0  0  0
  6 32  1  0  0  0  0
  7  9  2  0  0  0  0
  7 11  1  0  0  0  0
  7 13  1  0  0  0  0
  8 10  2  0  0  0  0
  8 12  1  0  0  0  0
  8 14  1  0  0  0  0
  9 10  1  0  0  0  0
  9 19  1  0  0  0  0
 10 20  1  0  0  0  0
 11 12  2  0  0  0  0
 11 21  1  0  0  0  0
 12 22  1  0  0  0  0
 15 17  1  0  0  0  0
 15 23  1  0  0  0  0
 15 24  1  0  0  0  0
 16 18  1  0  0  0  0
 16 25  1  0  0  0  0
 16 26  1  0  0  0  0
 17 27  1  0  0  0  0
 17 28  1  0  0  0  0
 18 29  1  0  0  0  0
 18 30  1  0  0  0  0
M  END
>  <PUBCHEM_COMPOUND_CID>
13739

>  <PUBCHEM_CONFORMER_RMSD>
0.8

>  <PUBCHEM_CONFORMER_DIVERSEORDER>
1
57
49
30
42
33
44
14
53
22
19
10
12
45
3
41
11
32
40
15
36
55
29
9
38
4
58
17
37
43
52
24
51
35
20
56
31
39
16
2
21
23
28
34
26
18
25
5
46
47
6
48
8
13
50
7
27
54

>  <PUBCHEM_MMFF94_PARTIAL_CHARGES>
24
1 -0.43
10 -0.15
11 -0.15
12 -0.15
13 0.63
14 0.63
15 0.28
16 0.28
17 0.28
18 0.28
19 0.15
2 -0.43
20 0.15
21 0.15
22 0.15
3 -0.57
31 0.4
32 0.4
4 -0.57
5 -0.68
6 -0.68
7 0.09
8 0.09
9 -0.15

>  <PUBCHEM_EFFECTIVE_ROTOR_COUNT>
8

>  <PUBCHEM_PHARMACOPHORE_FEATURES>
7
1 3 acceptor
1 4 acceptor
1 5 acceptor
1 5 donor
1 6 acceptor
1 6 donor
6 7 8 9 10 11 12 rings

>  <PUBCHEM_HEAVY_ATOM_COUNT>
18

>  <PUBCHEM_ATOM_DEF_STEREO_COUNT>
0

>  <PUBCHEM_ATOM_UDEF_STEREO_COUNT>
0

>  <PUBCHEM_BOND_DEF_STEREO_COUNT>
0

>  <PUBCHEM_BOND_UDEF_STEREO_COUNT>
0

>  <PUBCHEM_ISOTOPIC_ATOM_COUNT>
0

>  <PUBCHEM_COMPONENT_COUNT>
1

>  <PUBCHEM_CACTVS_TAUTO_COUNT>
1

>  <PUBCHEM_CONFORMER_ID>
000035AB00000001

>  <PUBCHEM_MMFF94_ENERGY>
44.2295

>  <PUBCHEM_FEATURE_SELFOVERLAP>
35.523

>  <PUBCHEM_SHAPE_FINGERPRINT>
10968037 39 18410012152543713039
11089746 13 12540695946557521839
11806522 49 18410009918986535353
12236239 1 18410855447243259972
13533116 47 16660916683113605170
13862211 1 18410006628598832378
14251718 22 18411136939420945249
14251732 16 18410855494493175089
14528608 73 18409733958879929100
14787075 74 18409729560226607264
15196674 1 18338516313804112001
17834072 33 18412824698380719020
19489759 90 14418129604479230181
200 152 18412260623910614371
20645477 70 18199752449496498934
21267235 1 18412550889973548114
221490 88 18263928916185329587
23272321 79 18409451383816681488
23402539 116 18335415751807977061
23402655 69 18339074883518801269
23559900 14 18262797501097503721
34797466 226 17203614826284060588
350125 39 18411983563781164433
3545911 37 18410577275887755602
4325135 7 18410855468718096782
4340502 62 16732706042963078794
4463277 17 18412265021635592889
474 4 17676779746965951636
474229 33 18411136935353240571
5104073 3 18266741281369621474
7062679 117 18341894121495265503

>  <PUBCHEM_SHAPE_MULTIPOLES>
335.22
13.61
1.83
0.69
0
0
-0.08
0
-1.87
0
-0.09
0
0
-0.86

>  <PUBCHEM_SHAPE_SELFOVERLAP>
687.263

>  <PUBCHEM_SHAPE_VOLUME>
192.6

>  <PUBCHEM_COORDINATE_TYPE>
2
5
10

$$$$
13739
 OpenBabel11092011363D

 32 32  0  0  0  0  0  0  0  0999 V2000
    2.6843   -2.2870    0.7769 O   0  0  0  0  0  0  0  0  0  0  0  0
   -2.6184    2.4500    0.1343 O   0  0  0  0  0  0  0  0  0  0  0  0
    3.6183   -0.5333   -0.3854 O   0  0  0  0  0  0  0  0  0  0  0  0
   -3.6715    0.4029    0.1307 O   0  0  0  0  0  0  0  0  0  0  0  0
    4.4432   -1.8201    2.9074 O   0  0  0  0  0  0  0  0  0  0  0  0
   -4.7699    1.2843    1.4992 O   0  0  0  0  0  0  0  0  0  0  0  0
    1.2904   -0.5293    0.1305 C   0  0  0  0  0  0  0  0  0  0  0  0
   -1.2905    0.5298    0.1314 C   0  0  0  0  0  0  0  0  0  0  0  0
    0.1866   -1.3821    0.1311 C   0  0  0  0  0  0  0  0  0  0  0  0
   -1.1039   -0.8526    0.1315 C   0  0  0  0  0  0  0  0  0  0  0  0
    1.1037    0.8530    0.1304 C   0  0  0  0  0  0  0  0  0  0  0  0
   -0.1867    1.3826    0.1310 C   0  0  0  0  0  0  0  0  0  0  0  0
    2.6356   -1.0816    0.1313 C   0  0  0  0  0  0  0  0  0  0  0  0
   -2.6356    1.0817    0.1316 C   0  0  0  0  0  0  0  0  0  0  0  0
    3.9596   -2.9339    0.8443 C   0  0  0  0  0  0  0  0  0  0  0  0
   -3.2331    3.1029    1.2504 C   0  0  0  0  0  0  0  0  0  0  0  0
    4.9304   -2.0378    1.5889 C   0  0  0  0  0  0  0  0  0  0  0  0
   -4.6915    2.6934    1.3215 C   0  0  0  0  0  0  0  0  0  0  0  0
    0.3104   -2.4619    0.1314 H   0  0  0  0  0  0  0  0  0  0  0  0
   -1.9332   -1.5543    0.1317 H   0  0  0  0  0  0  0  0  0  0  0  0
    1.9330    1.5547    0.1300 H   0  0  0  0  0  0  0  0  0  0  0  0
   -0.3105    2.4624    0.1308 H   0  0  0  0  0  0  0  0  0  0  0  0
    3.8566   -3.8901    1.3687 H   0  0  0  0  0  0  0  0  0  0  0  0
    4.3162   -3.1092   -0.1772 H   0  0  0  0  0  0  0  0  0  0  0  0
   -2.7173    2.8153    2.1729 H   0  0  0  0  0  0  0  0  0  0  0  0
   -3.1566    4.1863    1.1042 H   0  0  0  0  0  0  0  0  0  0  0  0
    5.0481   -1.0720    1.0894 H   0  0  0  0  0  0  0  0  0  0  0  0
    5.9103   -2.5161    1.6778 H   0  0  0  0  0  0  0  0  0  0  0  0
   -5.2185    2.9573    0.4005 H   0  0  0  0  0  0  0  0  0  0  0  0
   -5.1951    3.1665    2.1701 H   0  0  0  0  0  0  0  0  0  0  0  0
    3.5804   -1.3778    2.8318 H   0  0  0  0  0  0  0  0  0  0  0  0
   -4.2856    1.0657    2.3137 H   0  0  0  0  0  0  0  0  0  0  0  0
  1 13  1  0  0  0  0
  1 15  1  0  0  0  0
  2 14  1  0  0  0  0
  2 16  1  0  0  0  0
  3 13  2  0  0  0  0
  4 14  2  0  0  0  0
  5 17  1  0  0  0  0
  5 31  1  0  0  0  0
  6 18  1  0  0  0  0
  6 32  1  0  0  0  0
  7  9  2  0  0  0  0
  7 11  1  0  0  0  0
  7 13  1  0  0  0  0
  8 10  2  0  0  0  0
  8 12  1  0  0  0  0
  8 14  1  0  0  0  0
  9 10  1  0  0  0  0
  9 19  1  0  0  0  0
 10 20  1  0  0  0  0
 11 12  2  0  0  0  0
 11 21  1  0  0  0  0
 12 22  1  0  0  0  0
 15 17  1  0  0  0  0
 15 23  1  0  0  0  0
 15 24  1  0  0  0  0
 16 18  1  0  0  0  0
 16 25  1  0  0  0  0
 16 26  1  0  0  0  0
 17 27  1  0  0  0  0
 17 28  1  0  0  0  0
 18 29  1  0  0  0  0
 18 30  1  0  0  0  0
M  END
>  <PUBCHEM_COMPOUND_CID>
13739

>  <PUBCHEM_CONFORMER_RMSD>
0.8

>  <PUBCHEM_CONFORMER_DIVERSEORDER>
1
57
49
30
42
33
44
14
53
22
19
10
12
45
3
41
11
32
40
15
36
55
29
9
38
4
58
17
37
43
52
24
51
35
20
56
31
39
16
2
21
23
28
34
26
18
25
5
46
47
6
48
8
13
50
7
27
54

>  <PUBCHEM_MMFF94_PARTIAL_CHARGES>
24
1 -0.43
10 -0.15
11 -0.15
12 -0.15
13 0.63
14 0.63
15 0.28
16 0.28
17 0.28
18 0.28
19 0.15
2 -0.43
20 0.15
21 0.15
22 0.15
3 -0.57
31 0.4
32 0.4
4 -0.57
5 -0.68
6 -0.68
7 0.09
8 0.09
9 -0.15

>  <PUBCHEM_EFFECTIVE_ROTOR_COUNT>
8

>  <PUBCHEM_PHARMACOPHORE_FEATURES>
7
1 3 acceptor
1 4 acceptor
1 5 acceptor
1 5 donor
1 6 acceptor
1 6 donor
6 7 8 9 10 11 12 rings

>  <PUBCHEM_HEAVY_ATOM_COUNT>
18

>  <PUBCHEM_ATOM_DEF_STEREO_COUNT>
0

>  <PUBCHEM_ATOM_UDEF_STEREO_COUNT>
0

>  <PUBCHEM_BOND_DEF_STEREO_COUNT>
0

>  <PUBCHEM_BOND_UDEF_STEREO_COUNT>
0

>  <PUBCHEM_ISOTOPIC_ATOM_COUNT>
0

>  <PUBCHEM_COMPONENT_COUNT>
1

>  <PUBCHEM_CACTVS_TAUTO_COUNT>
1

>  <PUBCHEM_CONFORMER_ID>
000035AB00000001

>  <PUBCHEM_MMFF94_ENERGY>
44.2295

>  <PUBCHEM_FEATURE_SELFOVERLAP>
35.523

>  <PUBCHEM_SHAPE_FINGERPRINT>
10968037 39 18410012152543713039
11089746 13 12540695946557521839
11806522 49 18410009918986535353
12236239 1 18410855447243259972
13533116 47 16660916683113605170
13862211 1 18410006628598832378
14251718 22 18411136939420945249
14251732 16 18410855494493175089
14528608 73 18409733958879929100
14787075 74 18409729560226607264
15196674 1 18338516313804112001
17834072 33 18412824698380719020
19489759 90 14418129604479230181
200 152 18412260623910614371
20645477 70 18199752449496498934
21267235 1 18412550889973548114
221490 88 18263928916185329587
23272321 79 18409451383816681488
23402539 116 18335415751807977061
23402655 69 18339074883518801269
23559900 14 18262797501097503721
34797466 226 17203614826284060588
350125 39 18411983563781164433
3545911 37 18410577275887755602
4325135 7 18410855468718096782
4340502 62 16732706042963078794
4463277 17 18412265021635592889
474 4 17676779746965951636
474229 33 18411136935353240571
5104073 3 18266741281369621474
7062679 117 18341894121495265503

>  <PUBCHEM_SHAPE_MULTIPOLES>
335.22
13.61
1.83
0.69
0
0
-0.08
0
-1.87
0
-0.09
0
0
-0.86

>  <PUBCHEM_SHAPE_SELFOVERLAP>
687.263

>  <PUBCHEM_SHAPE_VOLUME>
192.6

>  <PUBCHEM_COORDINATE_TYPE>
2
5
10

$$$$
13739
 OpenBabel11092011363D

 32 32  0  0  0  0  0  0  0  0999 V2000
    3.5213   -0.2484    0.7586 O   0  0  0  0  0  0  0  0  0  0  0  0
   -3.5178    0.2583   -0.5136 O   0  0  0  0  0  0  0  0  0  0  0  0
    2.9466   -2.1692   -0.3723 O   0  0  0  0  0  0  0  0  0  0  0  0
   -2.9494    2.1624    0.6485 O   0  0  0  0  0  0  0  0  0  0  0  0
    6.1096    0.6043    1.4099 O   0  0  0  0  0  0  0  0  0  0  0  0
   -5.2882   -1.8830    1.8424 O   0  0  0  0  0  0  0  0  0  0  0  0
    1.2904   -0.5293    0.1305 C   0  0  0  0  0  0  0  0  0  0  0  0
   -1.2905    0.5298    0.1314 C   0  0  0  0  0  0  0  0  0  0  0  0
    0.1866   -1.3821    0.1311 C   0  0  0  0  0  0  0  0  0  0  0  0
   -1.1039   -0.8526    0.1315 C   0  0  0  0  0  0  0  0  0  0  0  0
    1.1037    0.8530    0.1304 C   0  0  0  0  0  0  0  0  0  0  0  0
   -0.1867    1.3826    0.1310 C   0  0  0  0  0  0  0  0  0  0  0  0
    2.6356   -1.0816    0.1313 C   0  0  0  0  0  0  0  0  0  0  0  0
   -2.6356    1.0817    0.1316 C   0  0  0  0  0  0  0  0  0  0  0  0
    4.2156   -0.7778    1.8930 C   0  0  0  0  0  0  0  0  0  0  0  0
   -4.6304   -0.2225    0.2483 C   0  0  0  0  0  0  0  0  0  0  0  0
    5.7071   -0.7436    1.6208 C   0  0  0  0  0  0  0  0  0  0  0  0
   -4.1789   -1.3948    1.0977 C   0  0  0  0  0  0  0  0  0  0  0  0
    0.3104   -2.4619    0.1314 H   0  0  0  0  0  0  0  0  0  0  0  0
   -1.9332   -1.5543    0.1317 H   0  0  0  0  0  0  0  0  0  0  0  0
    1.9330    1.5547    0.1300 H   0  0  0  0  0  0  0  0  0  0  0  0
   -0.3105    2.4624    0.1308 H   0  0  0  0  0  0  0  0  0  0  0  0
    3.9835   -0.1744    2.7773 H   0  0  0  0  0  0  0  0  0  0  0  0
    3.8854   -1.8106    2.0533 H   0  0  0  0  0  0  0  0  0  0  0  0
   -5.0104    0.5806    0.8889 H   0  0  0  0  0  0  0  0  0  0  0  0
   -5.4138   -0.5453   -0.4468 H   0  0  0  0  0  0  0  0  0  0  0  0
    5.9670   -1.3344    0.7378 H   0  0  0  0  0  0  0  0  0  0  0  0
    6.2677   -1.1208    2.4812 H   0  0  0  0  0  0  0  0  0  0  0  0
   -3.3957   -1.0930    1.7984 H   0  0  0  0  0  0  0  0  0  0  0  0
   -3.8062   -2.2146    0.4758 H   0  0  0  0  0  0  0  0  0  0  0  0
    5.6268    0.9364    0.6338 H   0  0  0  0  0  0  0  0  0  0  0  0
   -5.9793   -2.1336    1.2057 H   0  0  0  0  0  0  0  0  0  0  0  0
  1 13  1  0  0  0  0
  1 15  1  0  0  0  0
  2 14  1  0  0  0  0
  2 16  1  0  0  0  0
  3 13  2  0  0  0  0
  4 14  2  0  0  0  0
  5 17  1  0  0  0  0
  5 31  1  0  0  0  0
  6 18  1  0  0  0  0
  6 32  1  0  0  0  0
  7  9  2  0  0  0  0
  7 11  1  0  0  0  0
  7 13  1  0  0  0  0
  8 10  2  0  0  0  0
  8 12  1  0  0  0  0
  8 14  1  0  0  0  0
  9 10  1  0  0  0  0
  9 19  1  0  0  0  0
 10 20  1  0  0  0  0
 11 12  2  0  0  0  0
 11 21  1  0  0  0  0
 12 22  1  0  0  0  0
 15 17  1  0  0  0  0
 15 23  1  0  0  0  0
 15 24  1  0  0  0  0
 16 18  1  0  0  0  0
 16 25  1  0  0  0  0
 16 26  1  0  0  0  0
 17 27  1  0  0  0  0
 17 28  1  0  0  0  0
 18 29  1  0  0  0  0
 18 30  1  0  0  0  0
M  END
>  <PUBCHEM_COMPOUND_CID>
13739

>  <PUBCHEM_CONFORMER_RMSD>
0.8

>  <PUBCHEM_CONFORMER_DIVERSEORDER>
1
57
49
30
42
33
44
14
53
22
19
10
12
45
3
41
11
32
40
15
36
55
29
9
38
4
58
17
37
43
52
24
51
35
20
56
31
39
16
2
21
23
28
34
26
18
25
5
46
47
6
48
8
13
50
7
27
54

>  <PUBCHEM_MMFF94_PARTIAL_CHARGES>
24
1 -0.43
10 -0.15
11 -0.15
12 -0.15
13 0.63
14 0.63
15 0.28
16 0.28
17 0.28
18 0.28
19 0.15
2 -0.43
20 0.15
21 0.15
22 0.15
3 -0.57
31 0.4
32 0.4
4 -0.57
5 -0.68
6 -0.68
7 0.09
8 0.09
9 -0.15

>  <PUBCHEM_EFFECTIVE_ROTOR_COUNT>
8

>  <PUBCHEM_PHARMACOPHORE_FEATURES>
7
1 3 acceptor
1 4 acceptor
1 5 acceptor
1 5 donor
1 6 acceptor
1 6 donor
6 7 8 9 10 11 12 rings

>  <PUBCHEM_HEAVY_ATOM_COUNT>
18

>  <PUBCHEM_ATOM_DEF_STEREO_COUNT>
0

>  <PUBCHEM_ATOM_UDEF_STEREO_COUNT>
0

>  <PUBCHEM_BOND_DEF_STEREO_COUNT>
0

>  <PUBCHEM_BOND_UDEF_STEREO_COUNT>
0

>  <PUBCHEM_ISOTOPIC_ATOM_COUNT>
0

>  <PUBCHEM_COMPONENT_COUNT>
1

>  <PUBCHEM_CACTVS_TAUTO_COUNT>
1

>  <PUBCHEM_CONFORMER_ID>
000035AB00000001

>  <PUBCHEM_MMFF94_ENERGY>
44.2295

>  <PUBCHEM_FEATURE_SELFOVERLAP>
35.523

>  <PUBCHEM_SHAPE_FINGERPRINT>
10968037 39 18410012152543713039
11089746 13 12540695946557521839
11806522 49 18410009918986535353
12236239 1 18410855447243259972
13533116 47 16660916683113605170
13862211 1 18410006628598832378
14251718 22 18411136939420945249
14251732 16 18410855494493175089
14528608 73 18409733958879929100
14787075 74 18409729560226607264
15196674 1 18338516313804112001
17834072 33 18412824698380719020
19489759 90 14418129604479230181
200 152 18412260623910614371
20645477 70 18199752449496498934
21267235 1 18412550889973548114
221490 88 18263928916185329587
23272321 79 18409451383816681488
23402539 116 18335415751807977061
23402655 69 18339074883518801269
23559900 14 18262797501097503721
34797466 226 17203614826284060588
350125 39 18411983563781164433
3545911 37 18410577275887755602
4325135 7 18410855468718096782
4340502 62 16732706042963078794
4463277 17 18412265021635592889
474 4 17676779746965951636
474229 33 18411136935353240571
5104073 3 18266741281369621474
7062679 117 18341894121495265503

>  <PUBCHEM_SHAPE_MULTIPOLES>
335.22
13.61
1.83
0.69
0
0
-0.08
0
-1.87
0
-0.09
0
0
-0.86

>  <PUBCHEM_SHAPE_SELFOVERLAP>
687.263

>  <PUBCHEM_SHAPE_VOLUME>
192.6

>  <PUBCHEM_COORDINATE_TYPE>
2
5
10

$$$$
13739
 OpenBabel11092011363D

 32 32  0  0  0  0  0  0  0  0999 V2000
    3.5213   -0.2484    0.7586 O   0  0  0  0  0  0  0  0  0  0  0  0
   -3.5178    0.2583   -0.5136 O   0  0  0  0  0  0  0  0  0  0  0  0
    2.9466   -2.1692   -0.3723 O   0  0  0  0  0  0  0  0  0  0  0  0
   -2.9494    2.1624    0.6485 O   0  0  0  0  0  0  0  0  0  0  0  0
    3.3501   -1.1058    3.4059 O   0  0  0  0  0  0  0  0  0  0  0  0
   -3.3251   -0.1389    2.2533 O   0  0  0  0  0  0  0  0  0  0  0  0
    1.2904   -0.5293    0.1305 C   0  0  0  0  0  0  0  0  0  0  0  0
   -1.2905    0.5298    0.1314 C   0  0  0  0  0  0  0  0  0  0  0  0
    0.1866   -1.3821    0.1311 C   0  0  0  0  0  0  0  0  0  0  0  0
   -1.1039   -0.8526    0.1315 C   0  0  0  0  0  0  0  0  0  0  0  0
    1.1037    0.8530    0.1304 C   0  0  0  0  0  0  0  0  0  0  0  0
   -0.1867    1.3826    0.1310 C   0  0  0  0  0  0  0  0  0  0  0  0
    2.6356   -1.0816    0.1313 C   0  0  0  0  0  0  0  0  0  0  0  0
   -2.6356    1.0817    0.1316 C   0  0  0  0  0  0  0  0  0  0  0  0
    4.6413   -0.8628    1.4047 C   0  0  0  0  0  0  0  0  0  0  0  0
   -4.6304   -0.2225    0.2483 C   0  0  0  0  0  0  0  0  0  0  0  0
    4.1359   -1.8244    2.4629 C   0  0  0  0  0  0  0  0  0  0  0  0
   -4.1130   -1.0016    1.4420 C   0  0  0  0  0  0  0  0  0  0  0  0
    0.3104   -2.4619    0.1314 H   0  0  0  0  0  0  0  0  0  0  0  0
   -1.9332   -1.5543    0.1317 H   0  0  0  0  0  0  0  0  0  0  0  0
    1.9330    1.5547    0.1300 H   0  0  0  0  0  0  0  0  0  0  0  0
   -0.3105    2.4624    0.1308 H   0  0  0  0  0  0  0  0  0  0  0  0
    5.2389   -1.4039    0.6632 H   0  0  0  0  0  0  0  0  0  0  0  0
    5.2500   -0.0781    1.8686 H   0  0  0  0  0  0  0  0  0  0  0  0
   -5.2361    0.6249    0.5872 H   0  0  0  0  0  0  0  0  0  0  0  0
   -5.2327   -0.8772   -0.3918 H   0  0  0  0  0  0  0  0  0  0  0  0
    4.9617   -2.3133    2.9875 H   0  0  0  0  0  0  0  0  0  0  0  0
    3.4927   -2.5890    2.0173 H   0  0  0  0  0  0  0  0  0  0  0  0
   -3.4910   -1.8421    1.1223 H   0  0  0  0  0  0  0  0  0  0  0  0
   -4.9366   -1.3790    2.0561 H   0  0  0  0  0  0  0  0  0  0  0  0
    3.9244   -0.4375    3.8174 H   0  0  0  0  0  0  0  0  0  0  0  0
   -3.8885    0.6086    2.5171 H   0  0  0  0  0  0  0  0  0  0  0  0
  1 13  1  0  0  0  0
  1 15  1  0  0  0  0
  2 14  1  0  0  0  0
  2 16  1  0  0  0  0
  3 13  2  0  0  0  0
  4 14  2  0  0  0  0
  5 17  1  0  0  0  0
  5 31  1  0  0  0  0
  6 18  1  0  0  0  0
  6 32  1  0  0  0  0
  7  9  2  0  0  0  0
  7 11  1  0  0  0  0
  7 13  1  0  0  0  0
  8 10  2  0  0  0  0
  8 12  1  0  0  0  0
  8 14  1  0  0  0  0
  9 10  1  0  0  0  0
  9 19  1  0  0  0  0
 10 20  1  0  0  0  0
 11 12  2  0  0  0  0
 11 21  1  0  0  0  0
 12 22  1  0  0  0  0
 15 17  1  0  0  0  0
 15 23  1  0  0  0  0
 15 24  1  0  0  0  0
 16 18  1  0  0  0  0
 16 25  1  0  0  0  0
 16 26  1  0  0  0  0
 17 27  1  0  0  0  0
 17 28  1  0  0  0  0
 18 29  1  0  0  0  0
 18 30  1  0  0  0  0
M  END
>  <PUBCHEM_COMPOUND_CID>
13739

>  <PUBCHEM_CONFORMER_RMSD>
0.8

>  <PUBCHEM_CONFORMER_DIVERSEORDER>
1
57
49
30
42
33
44
14
53
22
19
10
12
45
3
41
11
32
40
15
36
55
29
9
38
4
58
17
37
43
52
24
51
35
20
56
31
39
16
2
21
23
28
34
26
18
25
5
46
47
6
48
8
13
50
7
27
54

>  <PUBCHEM_MMFF94_PARTIAL_CHARGES>
24
1 -0.43
10 -0.15
11 -0.15
12 -0.15
13 0.63
14 0.63
15 0.28
16 0.28
17 0.28
18 0.28
19 0.15
2 -0.43
20 0.15
21 0.15
22 0.15
3 -0.57
31 0.4
32 0.4
4 -0.57
5 -0.68
6 -0.68
7 0.09
8 0.09
9 -0.15

>  <PUBCHEM_EFFECTIVE_ROTOR_COUNT>
8

>  <PUBCHEM_PHARMACOPHORE_FEATURES>
7
1 3 acceptor
1 4 acceptor
1 5 acceptor
1 5 donor
1 6 acceptor
1 6 donor
6 7 8 9 10 11 12 rings

>  <PUBCHEM_HEAVY_ATOM_COUNT>
18

>  <PUBCHEM_ATOM_DEF_STEREO_COUNT>
0

>  <PUBCHEM_ATOM_UDEF_STEREO_COUNT>
0

>  <PUBCHEM_BOND_DEF_STEREO_COUNT>
0

>  <PUBCHEM_BOND_UDEF_STEREO_COUNT>
0

>  <PUBCHEM_ISOTOPIC_ATOM_COUNT>
0

>  <PUBCHEM_COMPONENT_COUNT>
1

>  <PUBCHEM_CACTVS_TAUTO_COUNT>
1

>  <PUBCHEM_CONFORMER_ID>
000035AB00000001

>  <PUBCHEM_MMFF94_ENERGY>
44.2295

>  <PUBCHEM_FEATURE_SELFOVERLAP>
35.523

>  <PUBCHEM_SHAPE_FINGERPRINT>
10968037 39 18410012152543713039
11089746 13 12540695946557521839
11806522 49 18410009918986535353
12236239 1 18410855447243259972
13533116 47 16660916683113605170
13862211 1 18410006628598832378
14251718 22 18411136939420945249
14251732 16 18410855494493175089
14528608 73 18409733958879929100
14787075 74 18409729560226607264
15196674 1 18338516313804112001
17834072 33 18412824698380719020
19489759 90 14418129604479230181
200 152 18412260623910614371
20645477 70 18199752449496498934
21267235 1 18412550889973548114
221490 88 18263928916185329587
23272321 79 18409451383816681488
23402539 116 18335415751807977061
23402655 69 18339074883518801269
23559900 14 18262797501097503721
34797466 226 17203614826284060588
350125 39 18411983563781164433
3545911 37 18410577275887755602
4325135 7 18410855468718096782
4340502 62 16732706042963078794
4463277 17 18412265021635592889
474 4 17676779746965951636
474229 33 18411136935353240571
5104073 3 18266741281369621474
7062679 117 18341894121495265503

>  <PUBCHEM_SHAPE_MULTIPOLES>
335.22
13.61
1.83
0.69
0
0
-0.08
0
-1.87
0
-0.09
0
0
-0.86

>  <PUBCHEM_SHAPE_SELFOVERLAP>
687.263

>  <PUBCHEM_SHAPE_VOLUME>
192.6

>  <PUBCHEM_COORDINATE_TYPE>
2
5
10

$$$$
13739
 OpenBabel11092011363D

 32 32  0  0  0  0  0  0  0  0999 V2000
    2.6843   -2.2870    0.7769 O   0  0  0  0  0  0  0  0  0  0  0  0
   -3.5178    0.2583   -0.5136 O   0  0  0  0  0  0  0  0  0  0  0  0
    3.6183   -0.5333   -0.3854 O   0  0  0  0  0  0  0  0  0  0  0  0
   -2.9494    2.1624    0.6485 O   0  0  0  0  0  0  0  0  0  0  0  0
    5.3606   -1.4643    0.6714 O   0  0  0  0  0  0  0  0  0  0  0  0
   -5.9825   -0.2947   -1.7260 O   0  0  0  0  0  0  0  0  0  0  0  0
    1.2904   -0.5293    0.1305 C   0  0  0  0  0  0  0  0  0  0  0  0
   -1.2905    0.5298    0.1314 C   0  0  0  0  0  0  0  0  0  0  0  0
    0.1866   -1.3821    0.1311 C   0  0  0  0  0  0  0  0  0  0  0  0
   -1.1039   -0.8526    0.1315 C   0  0  0  0  0  0  0  0  0  0  0  0
    1.1037    0.8530    0.1304 C   0  0  0  0  0  0  0  0  0  0  0  0
   -0.1867    1.3826    0.1310 C   0  0  0  0  0  0  0  0  0  0  0  0
    2.6356   -1.0816    0.1313 C   0  0  0  0  0  0  0  0  0  0  0  0
   -2.6356    1.0817    0.1316 C   0  0  0  0  0  0  0  0  0  0  0  0
    3.5346   -2.3720    1.9255 C   0  0  0  0  0  0  0  0  0  0  0  0
   -4.6304   -0.2225    0.2483 C   0  0  0  0  0  0  0  0  0  0  0  0
    4.9661   -2.5750    1.4677 C   0  0  0  0  0  0  0  0  0  0  0  0
   -5.9167    0.2391   -0.4092 C   0  0  0  0  0  0  0  0  0  0  0  0
    0.3104   -2.4619    0.1314 H   0  0  0  0  0  0  0  0  0  0  0  0
   -1.9332   -1.5543    0.1317 H   0  0  0  0  0  0  0  0  0  0  0  0
    1.9330    1.5547    0.1300 H   0  0  0  0  0  0  0  0  0  0  0  0
   -0.3105    2.4624    0.1308 H   0  0  0  0  0  0  0  0  0  0  0  0
    3.4561   -1.4470    2.5070 H   0  0  0  0  0  0  0  0  0  0  0  0
    3.2106   -3.2217    2.5373 H   0  0  0  0  0  0  0  0  0  0  0  0
   -4.6015   -1.3166    0.2889 H   0  0  0  0  0  0  0  0  0  0  0  0
   -4.5611    0.1889    1.2617 H   0  0  0  0  0  0  0  0  0  0  0  0
    5.0724   -3.4903    0.8785 H   0  0  0  0  0  0  0  0  0  0  0  0
    5.6450   -2.6201    2.3242 H   0  0  0  0  0  0  0  0  0  0  0  0
   -5.9547    1.3299   -0.4741 H   0  0  0  0  0  0  0  0  0  0  0  0
   -6.7931   -0.1175    0.1409 H   0  0  0  0  0  0  0  0  0  0  0  0
    4.7705   -1.4328   -0.1009 H   0  0  0  0  0  0  0  0  0  0  0  0
   -5.9337   -1.2630   -1.6510 H   0  0  0  0  0  0  0  0  0  0  0  0
  1 13  1  0  0  0  0
  1 15  1  0  0  0  0
  2 14  1  0  0  0  0
  2 16  1  0  0  0  0
  3 13  2  0  0  0  0
  4 14  2  0  0  0  0
  5 17  1  0  0  0  0
  5 31  1  0  0  0  0
  6 18  1  0  0  0  0
  6 32  1  0  0  0  0
  7  9  2  0  0  0  0
  7 11  1  0  0  0  0
  7 13  1  0  0  0  0
  8 10  2  0  0  0  0
  8 12  1  0  0  0  0
  8 14  1  0  0  0  0
  9 10  1  0  0  0  0
  9 19  1  0  0  0  0
 10 20  1  0  0  0  0
 11 12  2  0  0  0  0
 11 21  1  0  0  0  0
 12 22  1  0  0  0  0
 15 17  1  0  0  0  0
 15 23  1  0  0  0  0
 15 24  1  0  0  0  0
 16 18  1  0  0  0  0
 16 25  1  0  0  0  0
 16 26  1  0  0  0  0
 17 27  1  0  0  0  0
 17 28  1  0  0  0  0
 18 29  1  0  0  0  0
 18 30  1  0  0  0  0
M  END
>  <PUBCHEM_COMPOUND_CID>
13739

>  <PUBCHEM_CONFORMER_RMSD>
0.8

>  <PUBCHEM_CONFORMER_DIVERSEORDER>
1
57
49
30
42
33
44
14
53
22
19
10
12
45
3
41
11
32
40
15
36
55
29
9
38
4
58
17
37
43
52
24
51
35
20
56
31
39
16
2
21
23
28
34
26
18
25
5
46
47
6
48
8
13
50
7
27
54

>  <PUBCHEM_MMFF94_PARTIAL_CHARGES>
24
1 -0.43
10 -0.15
11 -0.15
12 -0.15
13 0.63
14 0.63
15 0.28
16 0.28
17 0.28
18 0.28
19 0.15
2 -0.43
20 0.15
21 0.15
22 0.15
3 -0.57
31 0.4
32 0.4
4 -0.57
5 -0.68
6 -0.68
7 0.09
8 0.09
9 -0.15

>  <PUBCHEM_EFFECTIVE_ROTOR_COUNT>
8

>  <PUBCHEM_PHARMACOPHORE_FEATURES>
7
1 3 acceptor
1 4 acceptor
1 5 acceptor
1 5 donor
1 6 acceptor
1 6 donor
6 7 8 9 10 11 12 rings

>  <PUBCHEM_HEAVY_ATOM_COUNT>
18

>  <PUBCHEM_ATOM_DEF_STEREO_COUNT>
0

>  <PUBCHEM_ATOM_UDEF_STEREO_COUNT>
0

>  <PUBCHEM_BOND_DEF_STEREO_COUNT>
0

>  <PUBCHEM_BOND_UDEF_STEREO_COUNT>
0

>  <PUBCHEM_ISOTOPIC_ATOM_COUNT>
0

>  <PUBCHEM_COMPONENT_COUNT>
1

>  <PUBCHEM_CACTVS_TAUTO_COUNT>
1

>  <PUBCHEM_CONFORMER_ID>
000035AB00000001

>  <PUBCHEM_MMFF94_ENERGY>
44.2295

>  <PUBCHEM_FEATURE_SELFOVERLAP>
35.523

>  <PUBCHEM_SHAPE_FINGERPRINT>
10968037 39 18410012152543713039
11089746 13 12540695946557521839
11806522 49 18410009918986535353
12236239 1 18410855447243259972
13533116 47 16660916683113605170
13862211 1 18410006628598832378
14251718 22 18411136939420945249
14251732 16 18410855494493175089
14528608 73 18409733958879929100
14787075 74 18409729560226607264
15196674 1 18338516313804112001
17834072 33 18412824698380719020
19489759 90 14418129604479230181
200 152 18412260623910614371
20645477 70 18199752449496498934
21267235 1 18412550889973548114
221490 88 18263928916185329587
23272321 79 18409451383816681488
23402539 116 18335415751807977061
23402655 69 18339074883518801269
23559900 14 18262797501097503721
34797466 226 17203614826284060588
350125 39 18411983563781164433
3545911 37 18410577275887755602
4325135 7 18410855468718096782
4340502 62 16732706042963078794
4463277 17 18412265021635592889
474 4 17676779746965951636
474229 33 18411136935353240571
5104073 3 18266741281369621474
7062679 117 18341894121495265503

>  <PUBCHEM_SHAPE_MULTIPOLES>
335.22
13.61
1.83
0.69
0
0
-0.08
0
-1.87
0
-0.09
0
0
-0.86

>  <PUBCHEM_SHAPE_SELFOVERLAP>
687.263

>  <PUBCHEM_SHAPE_VOLUME>
192.6

>  <PUBCHEM_COORDINATE_TYPE>
2
5
10

$$$$
13739
 OpenBabel11092011363D

 32 32  0  0  0  0  0  0  0  0999 V2000
    2.6843   -2.2870    0.7769 O   0  0  0  0  0  0  0  0  0  0  0  0
   -2.6812    2.2971   -0.4954 O   0  0  0  0  0  0  0  0  0  0  0  0
    3.6183   -0.5333   -0.3854 O   0  0  0  0  0  0  0  0  0  0  0  0
   -3.6208    0.5262    0.6360 O   0  0  0  0  0  0  0  0  0  0  0  0
    4.6033   -1.9355   -1.2342 O   0  0  0  0  0  0  0  0  0  0  0  0
   -4.4374    1.7982   -2.6025 O   0  0  0  0  0  0  0  0  0  0  0  0
    1.2904   -0.5293    0.1305 C   0  0  0  0  0  0  0  0  0  0  0  0
   -1.2905    0.5298    0.1314 C   0  0  0  0  0  0  0  0  0  0  0  0
    0.1866   -1.3821    0.1311 C   0  0  0  0  0  0  0  0  0  0  0  0
   -1.1039   -0.8526    0.1315 C   0  0  0  0  0  0  0  0  0  0  0  0
    1.1037    0.8530    0.1304 C   0  0  0  0  0  0  0  0  0  0  0  0
   -0.1867    1.3826    0.1310 C   0  0  0  0  0  0  0  0  0  0  0  0
    2.6356   -1.0816    0.1313 C   0  0  0  0  0  0  0  0  0  0  0  0
   -2.6356    1.0817    0.1316 C   0  0  0  0  0  0  0  0  0  0  0  0
    3.9596   -2.9339    0.8443 C   0  0  0  0  0  0  0  0  0  0  0  0
   -3.9559    2.9460   -0.5576 C   0  0  0  0  0  0  0  0  0  0  0  0
    4.4634   -3.1826   -0.5644 C   0  0  0  0  0  0  0  0  0  0  0  0
   -4.9326    2.0486   -1.2928 C   0  0  0  0  0  0  0  0  0  0  0  0
    0.3104   -2.4619    0.1314 H   0  0  0  0  0  0  0  0  0  0  0  0
   -1.9332   -1.5543    0.1317 H   0  0  0  0  0  0  0  0  0  0  0  0
    1.9330    1.5547    0.1300 H   0  0  0  0  0  0  0  0  0  0  0  0
   -0.3105    2.4624    0.1308 H   0  0  0  0  0  0  0  0  0  0  0  0
    4.6651   -2.2945    1.3857 H   0  0  0  0  0  0  0  0  0  0  0  0
    3.8405   -3.8853    1.3752 H   0  0  0  0  0  0  0  0  0  0  0  0
   -4.3174    3.1418    0.4576 H   0  0  0  0  0  0  0  0  0  0  0  0
   -3.8381    3.8916   -1.0989 H   0  0  0  0  0  0  0  0  0  0  0  0
    3.7739   -3.8148   -1.1309 H   0  0  0  0  0  0  0  0  0  0  0  0
    5.4496   -3.6557   -0.5463 H   0  0  0  0  0  0  0  0  0  0  0  0
   -5.9141    2.5231   -1.3773 H   0  0  0  0  0  0  0  0  0  0  0  0
   -5.0434    1.0847   -0.7866 H   0  0  0  0  0  0  0  0  0  0  0  0
    3.7243   -1.5209   -1.2685 H   0  0  0  0  0  0  0  0  0  0  0  0
   -3.5598    1.3896   -2.5093 H   0  0  0  0  0  0  0  0  0  0  0  0
  1 13  1  0  0  0  0
  1 15  1  0  0  0  0
  2 14  1  0  0  0  0
  2 16  1  0  0  0  0
  3 13  2  0  0  0  0
  4 14  2  0  0  0  0
  5 17  1  0  0  0  0
  5 31  1  0  0  0  0
  6 18  1  0  0  0  0
  6 32  1  0  0  0  0
  7  9  2  0  0  0  0
  7 11  1  0  0  0  0
  7 13  1  0  0  0  0
  8 10  2  0  0  0  0
  8 12  1  0  0  0  0
  8 14  1  0  0  0  0
  9 10  1  0  0  0  0
  9 19  1  0  0  0  0
 10 20  1  0  0  0  0
 11 12  2  0  0  0  0
 11 21  1  0  0  0  0
 12 22  1  0  0  0  0
 15 17  1  0  0  0  0
 15 23  1  0  0  0  0
 15 24  1  0  0  0  0
 16 18  1  0  0  0  0
 16 25  1  0  0  0  0
 16 26  1  0  0  0  0
 17 27  1  0  0  0  0
 17 28  1  0  0  0  0
 18 29  1  0  0  0  0
 18 30  1  0  0  0  0
M  END
>  <PUBCHEM_COMPOUND_CID>
13739

>  <PUBCHEM_CONFORMER_RMSD>
0.8

>  <PUBCHEM_CONFORMER_DIVERSEORDER>
1
57
49
30
42
33
44
14
53
22
19
10
12
45
3
41
11
32
40
15
36
55
29
9
38
4
58
17
37
43
52
24
51
35
20
56
31
39
16
2
21
23
28
34
26
18
25
5
46
47
6
48
8
13
50
7
27
54

>  <PUBCHEM_MMFF94_PARTIAL_CHARGES>
24
1 -0.43
10 -0.15
11 -0.15
12 -0.15
13 0.63
14 0.63
15 0.28
16 0.28
17 0.28
18 0.28
19 0.15
2 -0.43
20 0.15
21 0.15
22 0.15
3 -0.57
31 0.4
32 0.4
4 -0.57
5 -0.68
6 -0.68
7 0.09
8 0.09
9 -0.15

>  <PUBCHEM_EFFECTIVE_ROTOR_COUNT>
8

>  <PUBCHEM_PHARMACOPHORE_FEATURES>
7
1 3 acceptor
1 4 acceptor
1 5 acceptor
1 5 donor
1 6 acceptor
1 6 donor
6 7 8 9 10 11 12 rings

>  <PUBCHEM_HEAVY_ATOM_COUNT>
18

>  <PUBCHEM_ATOM_DEF_STEREO_COUNT>
0

>  <PUBCHEM_ATOM_UDEF_STEREO_COUNT>
0

>  <PUBCHEM_BOND_DEF_STEREO_COUNT>
0

>  <PUBCHEM_BOND_UDEF_STEREO_COUNT>
0

>  <PUBCHEM_ISOTOPIC_ATOM_COUNT>
0

>  <PUBCHEM_COMPONENT_COUNT>
1

>  <PUBCHEM_CACTVS_TAUTO_COUNT>
1

>  <PUBCHEM_CONFORMER_ID>
000035AB00000001

>  <PUBCHEM_MMFF94_ENERGY>
44.2295

>  <PUBCHEM_FEATURE_SELFOVERLAP>
35.523

>  <PUBCHEM_SHAPE_FINGERPRINT>
10968037 39 18410012152543713039
11089746 13 12540695946557521839
11806522 49 18410009918986535353
12236239 1 18410855447243259972
13533116 47 16660916683113605170
13862211 1 18410006628598832378
14251718 22 18411136939420945249
14251732 16 18410855494493175089
14528608 73 18409733958879929100
14787075 74 18409729560226607264
15196674 1 18338516313804112001
17834072 33 18412824698380719020
19489759 90 14418129604479230181
200 152 18412260623910614371
20645477 70 18199752449496498934
21267235 1 18412550889973548114
221490 88 18263928916185329587
23272321 79 18409451383816681488
23402539 116 18335415751807977061
23402655 69 18339074883518801269
23559900 14 18262797501097503721
34797466 226 17203614826284060588
350125 39 18411983563781164433
3545911 37 18410577275887755602
4325135 7 18410855468718096782
4340502 62 16732706042963078794
4463277 17 18412265021635592889
474 4 17676779746965951636
474229 33 18411136935353240571
5104073 3 18266741281369621474
7062679 117 18341894121495265503

>  <PUBCHEM_SHAPE_MULTIPOLES>
335.22
13.61
1.83
0.69
0
0
-0.08
0
-1.87
0
-0.09
0
0
-0.86

>  <PUBCHEM_SHAPE_SELFOVERLAP>
687.263

>  <PUBCHEM_SHAPE_VOLUME>
192.6

>  <PUBCHEM_COORDINATE_TYPE>
2
5
10

$$$$
13739
 OpenBabel11092011363D

 32 32  0  0  0  0  0  0  0  0999 V2000
    3.5844   -0.0957    0.1288 O   0  0  0  0  0  0  0  0  0  0  0  0
   -3.5178    0.2583   -0.5136 O   0  0  0  0  0  0  0  0  0  0  0  0
    2.8958   -2.2922    0.1329 O   0  0  0  0  0  0  0  0  0  0  0  0
   -2.9494    2.1624    0.6485 O   0  0  0  0  0  0  0  0  0  0  0  0
    4.3546   -2.4637   -1.1250 O   0  0  0  0  0  0  0  0  0  0  0  0
   -6.2887    2.4568   -1.3847 O   0  0  0  0  0  0  0  0  0  0  0  0
    1.2904   -0.5293    0.1305 C   0  0  0  0  0  0  0  0  0  0  0  0
   -1.2905    0.5298    0.1314 C   0  0  0  0  0  0  0  0  0  0  0  0
    0.1866   -1.3821    0.1311 C   0  0  0  0  0  0  0  0  0  0  0  0
   -1.1039   -0.8526    0.1315 C   0  0  0  0  0  0  0  0  0  0  0  0
    1.1037    0.8530    0.1304 C   0  0  0  0  0  0  0  0  0  0  0  0
   -0.1867    1.3826    0.1310 C   0  0  0  0  0  0  0  0  0  0  0  0
    2.6356   -1.0816    0.1313 C   0  0  0  0  0  0  0  0  0  0  0  0
   -2.6356    1.0817    0.1316 C   0  0  0  0  0  0  0  0  0  0  0  0
    4.9532   -0.5149    0.1298 C   0  0  0  0  0  0  0  0  0  0  0  0
   -4.8792    0.6956   -0.5831 C   0  0  0  0  0  0  0  0  0  0  0  0
    5.2205   -1.3353   -1.1174 C   0  0  0  0  0  0  0  0  0  0  0  0
   -4.9380    2.0141   -1.3299 C   0  0  0  0  0  0  0  0  0  0  0  0
    0.3104   -2.4619    0.1314 H   0  0  0  0  0  0  0  0  0  0  0  0
   -1.9332   -1.5543    0.1317 H   0  0  0  0  0  0  0  0  0  0  0  0
    1.9330    1.5547    0.1300 H   0  0  0  0  0  0  0  0  0  0  0  0
   -0.3105    2.4624    0.1308 H   0  0  0  0  0  0  0  0  0  0  0  0
    5.6046    0.3656    0.1443 H   0  0  0  0  0  0  0  0  0  0  0  0
    5.1316   -1.1214    1.0252 H   0  0  0  0  0  0  0  0  0  0  0  0
   -5.4800   -0.0577   -1.1040 H   0  0  0  0  0  0  0  0  0  0  0  0
   -5.2539    0.8284    0.4382 H   0  0  0  0  0  0  0  0  0  0  0  0
    6.2569   -1.6824   -1.1543 H   0  0  0  0  0  0  0  0  0  0  0  0
    5.0060   -0.7532   -2.0184 H   0  0  0  0  0  0  0  0  0  0  0  0
   -4.5670    1.9028   -2.3524 H   0  0  0  0  0  0  0  0  0  0  0  0
   -4.3533    2.7854   -0.8190 H   0  0  0  0  0  0  0  0  0  0  0  0
    4.5560   -2.9933   -0.3346 H   0  0  0  0  0  0  0  0  0  0  0  0
   -6.6066    2.5373   -0.4692 H   0  0  0  0  0  0  0  0  0  0  0  0
  1 13  1  0  0  0  0
  1 15  1  0  0  0  0
  2 14  1  0  0  0  0
  2 16  1  0  0  0  0
  3 13  2  0  0  0  0
  4 14  2  0  0  0  0
  5 17  1  0  0  0  0
  5 31  1  0  0  0  0
  6 18  1  0  0  0  0
  6 32  1  0  0  0  0
  7  9  2  0  0  0  0
  7 11  1  0  0  0  0
  7 13  1  0  0  0  0
  8 10  2  0  0  0  0
  8 12  1  0  0  0  0
  8 14  1  0  0  0  0
  9 10  1  0  0  0  0
  9 19  1  0  0  0  0
 10 20  1  0  0  0  0
 11 12  2  0  0  0  0
 11 21  1  0  0  0  0
 12 22  1  0  0  0  0
 15 17  1  0  0  0  0
 15 23  1  0  0  0  0
 15 24  1  0  0  0  0
 16 18  1  0  0  0  0
 16 25  1  0  0  0  0
 16 26  1  0  0  0  0
 17 27  1  0  0  0  0
 17 28  1  0  0  0  0
 18 29  1  0  0  0  0
 18 30  1  0  0  0  0
M  END
>  <PUBCHEM_COMPOUND_CID>
13739

>  <PUBCHEM_CONFORMER_RMSD>
0.8

>  <PUBCHEM_CONFORMER_DIVERSEORDER>
1
57
49
30
42
33
44
14
53
22
19
10
12
45
3
41
11
32
40
15
36
55
29
9
38
4
58
17
37
43
52
24
51
35
20
56
31
39
16
2
21
23
28
34
26
18
25
5
46
47
6
48
8
13
50
7
27
54

>  <PUBCHEM_MMFF94_PARTIAL_CHARGES>
24
1 -0.43
10 -0.15
11 -0.15
12 -0.15
13 0.63
14 0.63
15 0.28
16 0.28
17 0.28
18 0.28
19 0.15
2 -0.43
20 0.15
21 0.15
22 0.15
3 -0.57
31 0.4
32 0.4
4 -0.57
5 -0.68
6 -0.68
7 0.09
8 0.09
9 -0.15

>  <PUBCHEM_EFFECTIVE_ROTOR_COUNT>
8

>  <PUBCHEM_PHARMACOPHORE_FEATURES>
7
1 3 acceptor
1 4 acceptor
1 5 acceptor
1 5 donor
1 6 acceptor
1 6 donor
6 7 8 9 10 11 12 rings

>  <PUBCHEM_HEAVY_ATOM_COUNT>
18

>  <PUBCHEM_ATOM_DEF_STEREO_COUNT>
0

>  <PUBCHEM_ATOM_UDEF_STEREO_COUNT>
0

>  <PUBCHEM_BOND_DEF_STEREO_COUNT>
0

>  <PUBCHEM_BOND_UDEF_STEREO_COUNT>
0

>  <PUBCHEM_ISOTOPIC_ATOM_COUNT>
0

>  <PUBCHEM_COMPONENT_COUNT>
1

>  <PUBCHEM_CACTVS_TAUTO_COUNT>
1

>  <PUBCHEM_CONFORMER_ID>
000035AB00000001

>  <PUBCHEM_MMFF94_ENERGY>
44.2295

>  <PUBCHEM_FEATURE_SELFOVERLAP>
35.523

>  <PUBCHEM_SHAPE_FINGERPRINT>
10968037 39 18410012152543713039
11089746 13 12540695946557521839
11806522 49 18410009918986535353
12236239 1 18410855447243259972
13533116 47 16660916683113605170
13862211 1 18410006628598832378
14251718 22 18411136939420945249
14251732 16 18410855494493175089
14528608 73 18409733958879929100
14787075 74 18409729560226607264
15196674 1 18338516313804112001
17834072 33 18412824698380719020
19489759 90 14418129604479230181
200 152 18412260623910614371
20645477 70 18199752449496498934
21267235 1 18412550889973548114
221490 88 18263928916185329587
23272321 79 18409451383816681488
23402539 116 18335415751807977061
23402655 69 18339074883518801269
23559900 14 18262797501097503721
34797466 226 17203614826284060588
350125 39 18411983563781164433
3545911 37 18410577275887755602
4325135 7 18410855468718096782
4340502 62 16732706042963078794
4463277 17 18412265021635592889
474 4 17676779746965951636
474229 33 18411136935353240571
5104073 3 18266741281369621474
7062679 117 18341894121495265503

>  <PUBCHEM_SHAPE_MULTIPOLES>
335.22
13.61
1.83
0.69
0
0
-0.08
0
-1.87
0
-0.09
0
0
-0.86

>  <PUBCHEM_SHAPE_SELFOVERLAP>
687.263

>  <PUBCHEM_SHAPE_VOLUME>
192.6

>  <PUBCHEM_COORDINATE_TYPE>
2
5
10

$$$$
13739
 OpenBabel11092011363D

 32 32  0  0  0  0  0  0  0  0999 V2000
    2.6843   -2.2870    0.7769 O   0  0  0  0  0  0  0  0  0  0  0  0
   -2.6812    2.2971   -0.4954 O   0  0  0  0  0  0  0  0  0  0  0  0
    3.6183   -0.5333   -0.3854 O   0  0  0  0  0  0  0  0  0  0  0  0
   -3.6208    0.5262    0.6360 O   0  0  0  0  0  0  0  0  0  0  0  0
    3.1058   -0.0672    2.4102 O   0  0  0  0  0  0  0  0  0  0  0  0
   -3.9232    4.7240   -1.1421 O   0  0  0  0  0  0  0  0  0  0  0  0
    1.2904   -0.5293    0.1305 C   0  0  0  0  0  0  0  0  0  0  0  0
   -1.2905    0.5298    0.1314 C   0  0  0  0  0  0  0  0  0  0  0  0
    0.1866   -1.3821    0.1311 C   0  0  0  0  0  0  0  0  0  0  0  0
   -1.1039   -0.8526    0.1315 C   0  0  0  0  0  0  0  0  0  0  0  0
    1.1037    0.8530    0.1304 C   0  0  0  0  0  0  0  0  0  0  0  0
   -0.1867    1.3826    0.1310 C   0  0  0  0  0  0  0  0  0  0  0  0
    2.6356   -1.0816    0.1313 C   0  0  0  0  0  0  0  0  0  0  0  0
   -2.6356    1.0817    0.1316 C   0  0  0  0  0  0  0  0  0  0  0  0
    3.5346   -2.3720    1.9255 C   0  0  0  0  0  0  0  0  0  0  0  0
   -3.5508    2.4095   -1.6271 C   0  0  0  0  0  0  0  0  0  0  0  0
    3.0614   -1.3756    2.9663 C   0  0  0  0  0  0  0  0  0  0  0  0
   -4.5859    3.4829   -1.3512 C   0  0  0  0  0  0  0  0  0  0  0  0
    0.3104   -2.4619    0.1314 H   0  0  0  0  0  0  0  0  0  0  0  0
   -1.9332   -1.5543    0.1317 H   0  0  0  0  0  0  0  0  0  0  0  0
    1.9330    1.5547    0.1300 H   0  0  0  0  0  0  0  0  0  0  0  0
   -0.3105    2.4624    0.1308 H   0  0  0  0  0  0  0  0  0  0  0  0
    3.4945   -3.3871    2.3350 H   0  0  0  0  0  0  0  0  0  0  0  0
    4.5602   -2.1376    1.6184 H   0  0  0  0  0  0  0  0  0  0  0  0
   -2.9652    2.6723   -2.5146 H   0  0  0  0  0  0  0  0  0  0  0  0
   -4.0465    1.4443   -1.7815 H   0  0  0  0  0  0  0  0  0  0  0  0
    3.6890   -1.4027    3.8616 H   0  0  0  0  0  0  0  0  0  0  0  0
    2.0239   -1.5743    3.2507 H   0  0  0  0  0  0  0  0  0  0  0  0
   -5.1688    3.2453   -0.4571 H   0  0  0  0  0  0  0  0  0  0  0  0
   -5.2660    3.6052   -2.1998 H   0  0  0  0  0  0  0  0  0  0  0  0
    4.0304    0.1197    2.1736 H   0  0  0  0  0  0  0  0  0  0  0  0
   -3.3997    4.9131   -1.9395 H   0  0  0  0  0  0  0  0  0  0  0  0
  1 13  1  0  0  0  0
  1 15  1  0  0  0  0
  2 14  1  0  0  0  0
  2 16  1  0  0  0  0
  3 13  2  0  0  0  0
  4 14  2  0  0  0  0
  5 17  1  0  0  0  0
  5 31  1  0  0  0  0
  6 18  1  0  0  0  0
  6 32  1  0  0  0  0
  7  9  2  0  0  0  0
  7 11  1  0  0  0  0
  7 13  1  0  0  0  0
  8 10  2  0  0  0  0
  8 12  1  0  0  0  0
  8 14  1  0  0  0  0
  9 10  1  0  0  0  0
  9 19  1  0  0  0  0
 10 20  1  0  0  0  0
 11 12  2  0  0  0  0
 11 21  1  0  0  0  0
 12 22  1  0  0  0  0
 15 17  1  0  0  0  0
 15 23  1  0  0  0  0
 15 24  1  0  0  0  0
 16 18  1  0  0  0  0
 16 25  1  0  0  0  0
 16 26  1  0  0  0  0
 17 27  1  0  0  0  0
 17 28  1  0  0  0  0
 18 29  1  0  0  0  0
 18 30  1  0  0  0  0
M  END
>  <PUBCHEM_COMPOUND_CID>
13739

>  <PUBCHEM_CONFORMER_RMSD>
0.8

>  <PUBCHEM_CONFORMER_DIVERSEORDER>
1
57
49
30
42
33
44
14
53
22
19
10
12
45
3
41
11
32
40
15
36
55
29
9
38
4
58
17
37
43
52
24
51
35
20
56
31
39
16
2
21
23
28
34
26
18
25
5
46
47
6
48
8
13
50
7
27
54

>  <PUBCHEM_MMFF94_PARTIAL_CHARGES>
24
1 -0.43
10 -0.15
11 -0.15
12 -0.15
13 0.63
14 0.63
15 0.28
16 0.28
17 0.28
18 0.28
19 0.15
2 -0.43
20 0.15
21 0.15
22 0.15
3 -0.57
31 0.4
32 0.4
4 -0.57
5 -0.68
6 -0.68
7 0.09
8 0.09
9 -0.15

>  <PUBCHEM_EFFECTIVE_ROTOR_COUNT>
8

>  <PUBCHEM_PHARMACOPHORE_FEATURES>
7
1 3 acceptor
1 4 acceptor
1 5 acceptor
1 5 donor
1 6 acceptor
1 6 donor
6 7 8 9 10 11 12 rings

>  <PUBCHEM_HEAVY_ATOM_COUNT>
18

>  <PUBCHEM_ATOM_DEF_STEREO_COUNT>
0

>  <PUBCHEM_ATOM_UDEF_STEREO_COUNT>
0

>  <PUBCHEM_BOND_DEF_STEREO_COUNT>
0

>  <PUBCHEM_BOND_UDEF_STEREO_COUNT>
0

>  <PUBCHEM_ISOTOPIC_ATOM_COUNT>
0

>  <PUBCHEM_COMPONENT_COUNT>
1

>  <PUBCHEM_CACTVS_TAUTO_COUNT>
1

>  <PUBCHEM_CONFORMER_ID>
000035AB00000001

>  <PUBCHEM_MMFF94_ENERGY>
44.2295

>  <PUBCHEM_FEATURE_SELFOVERLAP>
35.523

>  <PUBCHEM_SHAPE_FINGERPRINT>
10968037 39 18410012152543713039
11089746 13 12540695946557521839
11806522 49 18410009918986535353
12236239 1 18410855447243259972
13533116 47 16660916683113605170
13862211 1 18410006628598832378
14251718 22 18411136939420945249
14251732 16 18410855494493175089
14528608 73 18409733958879929100
14787075 74 18409729560226607264
15196674 1 18338516313804112001
17834072 33 18412824698380719020
19489759 90 14418129604479230181
200 152 18412260623910614371
20645477 70 18199752449496498934
21267235 1 18412550889973548114
221490 88 18263928916185329587
23272321 79 18409451383816681488
23402539 116 18335415751807977061
23402655 69 18339074883518801269
23559900 14 18262797501097503721
34797466 226 17203614826284060588
350125 39 18411983563781164433
3545911 37 18410577275887755602
4325135 7 18410855468718096782
4340502 62 16732706042963078794
4463277 17 18412265021635592889
474 4 17676779746965951636
474229 33 18411136935353240571
5104073 3 18266741281369621474
7062679 117 18341894121495265503

>  <PUBCHEM_SHAPE_MULTIPOLES>
335.22
13.61
1.83
0.69
0
0
-0.08
0
-1.87
0
-0.09
0
0
-0.86

>  <PUBCHEM_SHAPE_SELFOVERLAP>
687.263

>  <PUBCHEM_SHAPE_VOLUME>
192.6

>  <PUBCHEM_COORDINATE_TYPE>
2
5
10

$$$$
13739
 OpenBabel11092011363D

 32 32  0  0  0  0  0  0  0  0999 V2000
    2.6843   -2.2870    0.7769 O   0  0  0  0  0  0  0  0  0  0  0  0
   -2.6184    2.4500    0.1343 O   0  0  0  0  0  0  0  0  0  0  0  0
    3.6183   -0.5333   -0.3854 O   0  0  0  0  0  0  0  0  0  0  0  0
   -3.6715    0.4029    0.1307 O   0  0  0  0  0  0  0  0  0  0  0  0
    3.6665   -1.8430    4.2566 O   0  0  0  0  0  0  0  0  0  0  0  0
   -3.8270    4.9580    0.4498 O   0  0  0  0  0  0  0  0  0  0  0  0
    1.2904   -0.5293    0.1305 C   0  0  0  0  0  0  0  0  0  0  0  0
   -1.2905    0.5298    0.1314 C   0  0  0  0  0  0  0  0  0  0  0  0
    0.1866   -1.3821    0.1311 C   0  0  0  0  0  0  0  0  0  0  0  0
   -1.1039   -0.8526    0.1315 C   0  0  0  0  0  0  0  0  0  0  0  0
    1.1037    0.8530    0.1304 C   0  0  0  0  0  0  0  0  0  0  0  0
   -0.1867    1.3826    0.1310 C   0  0  0  0  0  0  0  0  0  0  0  0
    2.6356   -1.0816    0.1313 C   0  0  0  0  0  0  0  0  0  0  0  0
   -2.6356    1.0817    0.1316 C   0  0  0  0  0  0  0  0  0  0  0  0
    3.5346   -2.3720    1.9255 C   0  0  0  0  0  0  0  0  0  0  0  0
   -3.2642    3.1077   -0.9611 C   0  0  0  0  0  0  0  0  0  0  0  0
    2.8154   -1.7734    3.1190 C   0  0  0  0  0  0  0  0  0  0  0  0
   -4.3809    3.9822   -0.4244 C   0  0  0  0  0  0  0  0  0  0  0  0
    0.3104   -2.4619    0.1314 H   0  0  0  0  0  0  0  0  0  0  0  0
   -1.9332   -1.5543    0.1317 H   0  0  0  0  0  0  0  0  0  0  0  0
    1.9330    1.5547    0.1300 H   0  0  0  0  0  0  0  0  0  0  0  0
   -0.3105    2.4624    0.1308 H   0  0  0  0  0  0  0  0  0  0  0  0
    3.7768   -3.4217    2.1235 H   0  0  0  0  0  0  0  0  0  0  0  0
    4.4546   -1.8126    1.7206 H   0  0  0  0  0  0  0  0  0  0  0  0
   -2.5351    3.7203   -1.5022 H   0  0  0  0  0  0  0  0  0  0  0  0
   -3.6772    2.3441   -1.6300 H   0  0  0  0  0  0  0  0  0  0  0  0
    1.8866   -2.3083    3.3369 H   0  0  0  0  0  0  0  0  0  0  0  0
    2.5878   -0.7175    2.9458 H   0  0  0  0  0  0  0  0  0  0  0  0
   -5.1098    3.3889    0.1344 H   0  0  0  0  0  0  0  0  0  0  0  0
   -4.8944    4.5105   -1.2336 H   0  0  0  0  0  0  0  0  0  0  0  0
    3.8553   -2.7821    4.4244 H   0  0  0  0  0  0  0  0  0  0  0  0
   -3.1722    5.4668   -0.0584 H   0  0  0  0  0  0  0  0  0  0  0  0
  1 13  1  0  0  0  0
  1 15  1  0  0  0  0
  2 14  1  0  0  0  0
  2 16  1  0  0  0  0
  3 13  2  0  0  0  0
  4 14  2  0  0  0  0
  5 17  1  0  0  0  0
  5 31  1  0  0  0  0
  6 18  1  0  0  0  0
  6 32  1  0  0  0  0
  7  9  2  0  0  0  0
  7 11  1  0  0  0  0
  7 13  1  0  0  0  0
  8 10  2  0  0  0  0
  8 12  1  0  0  0  0
  8 14  1  0  0  0  0
  9 10  1  0  0  0  0
  9 19  1  0  0  0  0
 10 20  1  0  0  0  0
 11 12  2  0  0  0  0
 11 21  1  0  0  0  0
 12 22  1  0  0  0  0
 15 17  1  0  0  0  0
 15 23  1  0  0  0  0
 15 24  1  0  0  0  0
 16 18  1  0  0  0  0
 16 25  1  0  0  0  0
 16 26  1  0  0  0  0
 17 27  1  0  0  0  0
 17 28  1  0  0  0  0
 18 29  1  0  0  0  0
 18 30  1  0  0  0  0
M  END
>  <PUBCHEM_COMPOUND_CID>
13739

>  <PUBCHEM_CONFORMER_RMSD>
0.8

>  <PUBCHEM_CONFORMER_DIVERSEORDER>
1
57
49
30
42
33
44
14
53
22
19
10
12
45
3
41
11
32
40
15
36
55
29
9
38
4
58
17
37
43
52
24
51
35
20
56
31
39
16
2
21
23
28
34
26
18
25
5
46
47
6
48
8
13
50
7
27
54

>  <PUBCHEM_MMFF94_PARTIAL_CHARGES>
24
1 -0.43
10 -0.15
11 -0.15
12 -0.15
13 0.63
14 0.63
15 0.28
16 0.28
17 0.28
18 0.28
19 0.15
2 -0.43
20 0.15
21 0.15
22 0.15
3 -0.57
31 0.4
32 0.4
4 -0.57
5 -0.68
6 -0.68
7 0.09
8 0.09
9 -0.15

>  <PUBCHEM_EFFECTIVE_ROTOR_COUNT>
8

>  <PUBCHEM_PHARMACOPHORE_FEATURES>
7
1 3 acceptor
1 4 acceptor
1 5 acceptor
1 5 donor
1 6 acceptor
1 6 donor
6 7 8 9 10 11 12 rings

>  <PUBCHEM_HEAVY_ATOM_COUNT>
18

>  <PUBCHEM_ATOM_DEF_STEREO_COUNT>
0

>  <PUBCHEM_ATOM_UDEF_STEREO_COUNT>
0

>  <PUBCHEM_BOND_DEF_STEREO_COUNT>
0

>  <PUBCHEM_BOND_UDEF_STEREO_COUNT>
0

>  <PUBCHEM_ISOTOPIC_ATOM_COUNT>
0

>  <PUBCHEM_COMPONENT_COUNT>
1

>  <PUBCHEM_CACTVS_TAUTO_COUNT>
1

>  <PUBCHEM_CONFORMER_ID>
000035AB00000001

>  <PUBCHEM_MMFF94_ENERGY>
44.2295

>  <PUBCHEM_FEATURE_SELFOVERLAP>
35.523

>  <PUBCHEM_SHAPE_FINGERPRINT>
10968037 39 18410012152543713039
11089746 13 12540695946557521839
11806522 49 18410009918986535353
12236239 1 18410855447243259972
13533116 47 16660916683113605170
13862211 1 18410006628598832378
14251718 22 18411136939420945249
14251732 16 18410855494493175089
14528608 73 18409733958879929100
14787075 74 18409729560226607264
15196674 1 18338516313804112001
17834072 33 18412824698380719020
19489759 90 14418129604479230181
200 152 18412260623910614371
20645477 70 18199752449496498934
21267235 1 18412550889973548114
221490 88 18263928916185329587
23272321 79 18409451383816681488
23402539 116 18335415751807977061
23402655 69 18339074883518801269
23559900 14 18262797501097503721
34797466 226 17203614826284060588
350125 39 18411983563781164433
3545911 37 18410577275887755602
4325135 7 18410855468718096782
4340502 62 16732706042963078794
4463277 17 18412265021635592889
474 4 17676779746965951636
474229 33 18411136935353240571
5104073 3 18266741281369621474
7062679 117 18341894121495265503

>  <PUBCHEM_SHAPE_MULTIPOLES>
335.22
13.61
1.83
0.69
0
0
-0.08
0
-1.87
0
-0.09
0
0
-0.86

>  <PUBCHEM_SHAPE_SELFOVERLAP>
687.263

>  <PUBCHEM_SHAPE_VOLUME>
192.6

>  <PUBCHEM_COORDINATE_TYPE>
2
5
10

$$$$
13739
 OpenBabel11092011363D

 32 32  0  0  0  0  0  0  0  0999 V2000
    3.5844   -0.0957    0.1288 O   0  0  0  0  0  0  0  0  0  0  0  0
   -2.6812    2.2971   -0.4954 O   0  0  0  0  0  0  0  0  0  0  0  0
    2.8958   -2.2922    0.1329 O   0  0  0  0  0  0  0  0  0  0  0  0
   -3.6208    0.5262    0.6360 O   0  0  0  0  0  0  0  0  0  0  0  0
    5.0163   -2.4147    0.7787 O   0  0  0  0  0  0  0  0  0  0  0  0
   -6.0220    3.0014   -1.7655 O   0  0  0  0  0  0  0  0  0  0  0  0
    1.2904   -0.5293    0.1305 C   0  0  0  0  0  0  0  0  0  0  0  0
   -1.2905    0.5298    0.1314 C   0  0  0  0  0  0  0  0  0  0  0  0
    0.1866   -1.3821    0.1311 C   0  0  0  0  0  0  0  0  0  0  0  0
   -1.1039   -0.8526    0.1315 C   0  0  0  0  0  0  0  0  0  0  0  0
    1.1037    0.8530    0.1304 C   0  0  0  0  0  0  0  0  0  0  0  0
   -0.1867    1.3826    0.1310 C   0  0  0  0  0  0  0  0  0  0  0  0
    2.6356   -1.0816    0.1313 C   0  0  0  0  0  0  0  0  0  0  0  0
   -2.6356    1.0817    0.1316 C   0  0  0  0  0  0  0  0  0  0  0  0
    4.8327   -0.4006   -0.5021 C   0  0  0  0  0  0  0  0  0  0  0  0
   -3.9559    2.9460   -0.5576 C   0  0  0  0  0  0  0  0  0  0  0  0
    5.6894   -1.2034    0.4579 C   0  0  0  0  0  0  0  0  0  0  0  0
   -4.7619    2.3455   -1.6932 C   0  0  0  0  0  0  0  0  0  0  0  0
    0.3104   -2.4619    0.1314 H   0  0  0  0  0  0  0  0  0  0  0  0
   -1.9332   -1.5543    0.1317 H   0  0  0  0  0  0  0  0  0  0  0  0
    1.9330    1.5547    0.1300 H   0  0  0  0  0  0  0  0  0  0  0  0
   -0.3105    2.4624    0.1308 H   0  0  0  0  0  0  0  0  0  0  0  0
    4.6493   -0.9803   -1.4132 H   0  0  0  0  0  0  0  0  0  0  0  0
    5.3336    0.5404   -0.7573 H   0  0  0  0  0  0  0  0  0  0  0  0
   -4.4843    2.8076    0.3918 H   0  0  0  0  0  0  0  0  0  0  0  0
   -3.7932    4.0144   -0.7399 H   0  0  0  0  0  0  0  0  0  0  0  0
    5.8837   -0.6497    1.3807 H   0  0  0  0  0  0  0  0  0  0  0  0
    6.6432   -1.4729   -0.0052 H   0  0  0  0  0  0  0  0  0  0  0  0
   -4.9346    1.2782   -1.5302 H   0  0  0  0  0  0  0  0  0  0  0  0
   -4.2568    2.4838   -2.6541 H   0  0  0  0  0  0  0  0  0  0  0  0
    4.1761   -2.1785    1.2077 H   0  0  0  0  0  0  0  0  0  0  0  0
   -5.8502    3.9496   -1.8966 H   0  0  0  0  0  0  0  0  0  0  0  0
  1 13  1  0  0  0  0
  1 15  1  0  0  0  0
  2 14  1  0  0  0  0
  2 16  1  0  0  0  0
  3 13  2  0  0  0  0
  4 14  2  0  0  0  0
  5 17  1  0  0  0  0
  5 31  1  0  0  0  0
  6 18  1  0  0  0  0
  6 32  1  0  0  0  0
  7  9  2  0  0  0  0
  7 11  1  0  0  0  0
  7 13  1  0  0  0  0
  8 10  2  0  0  0  0
  8 12  1  0  0  0  0
  8 14  1  0  0  0  0
  9 10  1  0  0  0  0
  9 19  1  0  0  0  0
 10 20  1  0  0  0  0
 11 12  2  0  0  0  0
 11 21  1  0  0  0  0
 12 22  1  0  0  0  0
 15 17  1  0  0  0  0
 15 23  1  0  0  0  0
 15 24  1  0  0  0  0
 16 18  1  0  0  0  0
 16 25  1  0  0  0  0
 16 26  1  0  0  0  0
 17 27  1  0  0  0  0
 17 28  1  0  0  0  0
 18 29  1  0  0  0  0
 18 30  1  0  0  0  0
M  END
>  <PUBCHEM_COMPOUND_CID>
13739

>  <PUBCHEM_CONFORMER_RMSD>
0.8

>  <PUBCHEM_CONFORMER_DIVERSEORDER>
1
57
49
30
42
33
44
14
53
22
19
10
12
45
3
41
11
32
40
15
36
55
29
9
38
4
58
17
37
43
52
24
51
35
20
56
31
39
16
2
21
23
28
34
26
18
25
5
46
47
6
48
8
13
50
7
27
54

>  <PUBCHEM_MMFF94_PARTIAL_CHARGES>
24
1 -0.43
10 -0.15
11 -0.15
12 -0.15
13 0.63
14 0.63
15 0.28
16 0.28
17 0.28
18 0.28
19 0.15
2 -0.43
20 0.15
21 0.15
22 0.15
3 -0.57
31 0.4
32 0.4
4 -0.57
5 -0.68
6 -0.68
7 0.09
8 0.09
9 -0.15

>  <PUBCHEM_EFFECTIVE_ROTOR_COUNT>
8

>  <PUBCHEM_PHARMACOPHORE_FEATURES>
7
1 3 acceptor
1 4 acceptor
1 5 acceptor
1 5 donor
1 6 acceptor
1 6 donor
6 7 8 9 10 11 12 rings

>  <PUBCHEM_HEAVY_ATOM_COUNT>
18

>  <PUBCHEM_ATOM_DEF_STEREO_COUNT>
0

>  <PUBCHEM_ATOM_UDEF_STEREO_COUNT>
0

>  <PUBCHEM_BOND_DEF_STEREO_COUNT>
0

>  <PUBCHEM_BOND_UDEF_STEREO_COUNT>
0

>  <PUBCHEM_ISOTOPIC_ATOM_COUNT>
0

>  <PUBCHEM_COMPONENT_COUNT>
1

>  <PUBCHEM_CACTVS_TAUTO_COUNT>
1

>  <PUBCHEM_CONFORMER_ID>
000035AB00000001

>  <PUBCHEM_MMFF94_ENERGY>
44.2295

>  <PUBCHEM_FEATURE_SELFOVERLAP>
35.523

>  <PUBCHEM_SHAPE_FINGERPRINT>
10968037 39 18410012152543713039
11089746 13 12540695946557521839
11806522 49 18410009918986535353
12236239 1 18410855447243259972
13533116 47 16660916683113605170
13862211 1 18410006628598832378
14251718 22 18411136939420945249
14251732 16 18410855494493175089
14528608 73 18409733958879929100
14787075 74 18409729560226607264
15196674 1 18338516313804112001
17834072 33 18412824698380719020
19489759 90 14418129604479230181
200 152 18412260623910614371
20645477 70 18199752449496498934
21267235 1 18412550889973548114
221490 88 18263928916185329587
23272321 79 18409451383816681488
23402539 116 18335415751807977061
23402655 69 18339074883518801269
23559900 14 18262797501097503721
34797466 226 17203614826284060588
350125 39 18411983563781164433
3545911 37 18410577275887755602
4325135 7 18410855468718096782
4340502 62 16732706042963078794
4463277 17 18412265021635592889
474 4 17676779746965951636
474229 33 18411136935353240571
5104073 3 18266741281369621474
7062679 117 18341894121495265503

>  <PUBCHEM_SHAPE_MULTIPOLES>
335.22
13.61
1.83
0.69
0
0
-0.08
0
-1.87
0
-0.09
0
0
-0.86

>  <PUBCHEM_SHAPE_SELFOVERLAP>
687.263

>  <PUBCHEM_SHAPE_VOLUME>
192.6

>  <PUBCHEM_COORDINATE_TYPE>
2
5
10

$$$$
13739
 OpenBabel11092011363D

 32 32  0  0  0  0  0  0  0  0999 V2000
    2.6843   -2.2870    0.7769 O   0  0  0  0  0  0  0  0  0  0  0  0
   -2.6184    2.4500    0.1343 O   0  0  0  0  0  0  0  0  0  0  0  0
    3.6183   -0.5333   -0.3854 O   0  0  0  0  0  0  0  0  0  0  0  0
   -3.6715    0.4029    0.1307 O   0  0  0  0  0  0  0  0  0  0  0  0
    5.2534   -2.3299    1.8943 O   0  0  0  0  0  0  0  0  0  0  0  0
   -1.1324    3.1120    2.3985 O   0  0  0  0  0  0  0  0  0  0  0  0
    1.2904   -0.5293    0.1305 C   0  0  0  0  0  0  0  0  0  0  0  0
   -1.2905    0.5298    0.1314 C   0  0  0  0  0  0  0  0  0  0  0  0
    0.1866   -1.3821    0.1311 C   0  0  0  0  0  0  0  0  0  0  0  0
   -1.1039   -0.8526    0.1315 C   0  0  0  0  0  0  0  0  0  0  0  0
    1.1037    0.8530    0.1304 C   0  0  0  0  0  0  0  0  0  0  0  0
   -0.1867    1.3826    0.1310 C   0  0  0  0  0  0  0  0  0  0  0  0
    2.6356   -1.0816    0.1313 C   0  0  0  0  0  0  0  0  0  0  0  0
   -2.6356    1.0817    0.1316 C   0  0  0  0  0  0  0  0  0  0  0  0
    3.6740   -3.2203    0.3311 C   0  0  0  0  0  0  0  0  0  0  0  0
   -3.2331    3.1029    1.2504 C   0  0  0  0  0  0  0  0  0  0  0  0
    5.0495   -2.6085    0.5145 C   0  0  0  0  0  0  0  0  0  0  0  0
   -2.1953    3.9500    1.9611 C   0  0  0  0  0  0  0  0  0  0  0  0
    0.3104   -2.4619    0.1314 H   0  0  0  0  0  0  0  0  0  0  0  0
   -1.9332   -1.5543    0.1317 H   0  0  0  0  0  0  0  0  0  0  0  0
    1.9330    1.5547    0.1300 H   0  0  0  0  0  0  0  0  0  0  0  0
   -0.3105    2.4624    0.1308 H   0  0  0  0  0  0  0  0  0  0  0  0
    3.5949   -4.1433    0.9157 H   0  0  0  0  0  0  0  0  0  0  0  0
    3.4964   -3.4375   -0.7284 H   0  0  0  0  0  0  0  0  0  0  0  0
   -4.0556    3.7345    0.8980 H   0  0  0  0  0  0  0  0  0  0  0  0
   -3.6190    2.3363    1.9319 H   0  0  0  0  0  0  0  0  0  0  0  0
    5.1545   -1.6805   -0.0547 H   0  0  0  0  0  0  0  0  0  0  0  0
    5.8305   -3.3088    0.2040 H   0  0  0  0  0  0  0  0  0  0  0  0
   -2.6263    4.4485    2.8336 H   0  0  0  0  0  0  0  0  0  0  0  0
   -1.7726    4.7044    1.2903 H   0  0  0  0  0  0  0  0  0  0  0  0
    4.5717   -1.6929    2.1687 H   0  0  0  0  0  0  0  0  0  0  0  0
   -0.7701    2.6668    1.6135 H   0  0  0  0  0  0  0  0  0  0  0  0
  1 13  1  0  0  0  0
  1 15  1  0  0  0  0
  2 14  1  0  0  0  0
  2 16  1  0  0  0  0
  3 13  2  0  0  0  0
  4 14  2  0  0  0  0
  5 17  1  0  0  0  0
  5 31  1  0  0  0  0
  6 18  1  0  0  0  0
  6 32  1  0  0  0  0
  7  9  2  0  0  0  0
  7 11  1  0  0  0  0
  7 13  1  0  0  0  0
  8 10  2  0  0  0  0
  8 12  1  0  0  0  0
  8 14  1  0  0  0  0
  9 10  1  0  0  0  0
  9 19  1  0  0  0  0
 10 20  1  0  0  0  0
 11 12  2  0  0  0  0
 11 21  1  0  0  0  0
 12 22  1  0  0  0  0
 15 17  1  0  0  0  0
 15 23  1  0  0  0  0
 15 24  1  0  0  0  0
 16 18  1  0  0  0  0
 16 25  1  0  0  0  0
 16 26  1  0  0  0  0
 17 27  1  0  0  0  0
 17 28  1  0  0  0  0
 18 29  1  0  0  0  0
 18 30  1  0  0  0  0
M  END
>  <PUBCHEM_COMPOUND_CID>
13739

>  <PUBCHEM_CONFORMER_RMSD>
0.8

>  <PUBCHEM_CONFORMER_DIVERSEORDER>
1
57
49
30
42
33
44
14
53
22
19
10
12
45
3
41
11
32
40
15
36
55
29
9
38
4
58
17
37
43
52
24
51
35
20
56
31
39
16
2
21
23
28
34
26
18
25
5
46
47
6
48
8
13
50
7
27
54

>  <PUBCHEM_MMFF94_PARTIAL_CHARGES>
24
1 -0.43
10 -0.15
11 -0.15
12 -0.15
13 0.63
14 0.63
15 0.28
16 0.28
17 0.28
18 0.28
19 0.15
2 -0.43
20 0.15
21 0.15
22 0.15
3 -0.57
31 0.4
32 0.4
4 -0.57
5 -0.68
6 -0.68
7 0.09
8 0.09
9 -0.15

>  <PUBCHEM_EFFECTIVE_ROTOR_COUNT>
8

>  <PUBCHEM_PHARMACOPHORE_FEATURES>
7
1 3 acceptor
1 4 acceptor
1 5 acceptor
1 5 donor
1 6 acceptor
1 6 donor
6 7 8 9 10 11 12 rings

>  <PUBCHEM_HEAVY_ATOM_COUNT>
18

>  <PUBCHEM_ATOM_DEF_STEREO_COUNT>
0

>  <PUBCHEM_ATOM_UDEF_STEREO_COUNT>
0

>  <PUBCHEM_BOND_DEF_STEREO_COUNT>
0

>  <PUBCHEM_BOND_UDEF_STEREO_COUNT>
0

>  <PUBCHEM_ISOTOPIC_ATOM_COUNT>
0

>  <PUBCHEM_COMPONENT_COUNT>
1

>  <PUBCHEM_CACTVS_TAUTO_COUNT>
1

>  <PUBCHEM_CONFORMER_ID>
000035AB00000001

>  <PUBCHEM_MMFF94_ENERGY>
44.2295

>  <PUBCHEM_FEATURE_SELFOVERLAP>
35.523

>  <PUBCHEM_SHAPE_FINGERPRINT>
10968037 39 18410012152543713039
11089746 13 12540695946557521839
11806522 49 18410009918986535353
12236239 1 18410855447243259972
13533116 47 16660916683113605170
13862211 1 18410006628598832378
14251718 22 18411136939420945249
14251732 16 18410855494493175089
14528608 73 18409733958879929100
14787075 74 18409729560226607264
15196674 1 18338516313804112001
17834072 33 18412824698380719020
19489759 90 14418129604479230181
200 152 18412260623910614371
20645477 70 18199752449496498934
21267235 1 18412550889973548114
221490 88 18263928916185329587
23272321 79 18409451383816681488
23402539 116 18335415751807977061
23402655 69 18339074883518801269
23559900 14 18262797501097503721
34797466 226 17203614826284060588
350125 39 18411983563781164433
3545911 37 18410577275887755602
4325135 7 18410855468718096782
4340502 62 16732706042963078794
4463277 17 18412265021635592889
474 4 17676779746965951636
474229 33 18411136935353240571
5104073 3 18266741281369621474
7062679 117 18341894121495265503

>  <PUBCHEM_SHAPE_MULTIPOLES>
335.22
13.61
1.83
0.69
0
0
-0.08
0
-1.87
0
-0.09
0
0
-0.86

>  <PUBCHEM_SHAPE_SELFOVERLAP>
687.263

>  <PUBCHEM_SHAPE_VOLUME>
192.6

>  <PUBCHEM_COORDINATE_TYPE>
2
5
10

$$$$
13739
 OpenBabel11092011363D

 32 32  0  0  0  0  0  0  0  0999 V2000
    3.5213   -0.2484    0.7586 O   0  0  0  0  0  0  0  0  0  0  0  0
   -2.6184    2.4500    0.1343 O   0  0  0  0  0  0  0  0  0  0  0  0
    2.9466   -2.1692   -0.3723 O   0  0  0  0  0  0  0  0  0  0  0  0
   -3.6715    0.4029    0.1307 O   0  0  0  0  0  0  0  0  0  0  0  0
    3.1802   -2.3619    2.5661 O   0  0  0  0  0  0  0  0  0  0  0  0
   -2.9653    3.7801   -3.2391 O   0  0  0  0  0  0  0  0  0  0  0  0
    1.2904   -0.5293    0.1305 C   0  0  0  0  0  0  0  0  0  0  0  0
   -1.2905    0.5298    0.1314 C   0  0  0  0  0  0  0  0  0  0  0  0
    0.1866   -1.3821    0.1311 C   0  0  0  0  0  0  0  0  0  0  0  0
   -1.1039   -0.8526    0.1315 C   0  0  0  0  0  0  0  0  0  0  0  0
    1.1037    0.8530    0.1304 C   0  0  0  0  0  0  0  0  0  0  0  0
   -0.1867    1.3826    0.1310 C   0  0  0  0  0  0  0  0  0  0  0  0
    2.6356   -1.0816    0.1313 C   0  0  0  0  0  0  0  0  0  0  0  0
   -2.6356    1.0817    0.1316 C   0  0  0  0  0  0  0  0  0  0  0  0
    4.6413   -0.8628    1.4047 C   0  0  0  0  0  0  0  0  0  0  0  0
   -3.2642    3.1077   -0.9611 C   0  0  0  0  0  0  0  0  0  0  0  0
    4.2034   -1.3924    2.7567 C   0  0  0  0  0  0  0  0  0  0  0  0
   -2.3301    3.1122   -2.1558 C   0  0  0  0  0  0  0  0  0  0  0  0
    0.3104   -2.4619    0.1314 H   0  0  0  0  0  0  0  0  0  0  0  0
   -1.9332   -1.5543    0.1317 H   0  0  0  0  0  0  0  0  0  0  0  0
    1.9330    1.5547    0.1300 H   0  0  0  0  0  0  0  0  0  0  0  0
   -0.3105    2.4624    0.1308 H   0  0  0  0  0  0  0  0  0  0  0  0
    5.0146   -1.6850    0.7847 H   0  0  0  0  0  0  0  0  0  0  0  0
    5.4272   -0.1094    1.5318 H   0  0  0  0  0  0  0  0  0  0  0  0
   -4.1906    2.5795   -1.2111 H   0  0  0  0  0  0  0  0  0  0  0  0
   -3.4926    4.1371   -0.6623 H   0  0  0  0  0  0  0  0  0  0  0  0
    3.8199   -0.5919    3.3956 H   0  0  0  0  0  0  0  0  0  0  0  0
    5.0337   -1.8900    3.2663 H   0  0  0  0  0  0  0  0  0  0  0  0
   -2.0892    2.0928   -2.4693 H   0  0  0  0  0  0  0  0  0  0  0  0
   -1.4018    3.6464   -1.9310 H   0  0  0  0  0  0  0  0  0  0  0  0
    2.4330   -1.9178    2.1300 H   0  0  0  0  0  0  0  0  0  0  0  0
   -3.1847    4.6789   -2.9394 H   0  0  0  0  0  0  0  0  0  0  0  0
  1 13  1  0  0  0  0
  1 15  1  0  0  0  0
  2 14  1  0  0  0  0
  2 16  1  0  0  0  0
  3 13  2  0  0  0  0
  4 14  2  0  0  0  0
  5 17  1  0  0  0  0
  5 31  1  0  0  0  0
  6 18  1  0  0  0  0
  6 32  1  0  0  0  0
  7  9  2  0  0  0  0
  7 11  1  0  0  0  0
  7 13  1  0  0  0  0
  8 10  2  0  0  0  0
  8 12  1  0  0  0  0
  8 14  1  0  0  0  0
  9 10  1  0  0  0  0
  9 19  1  0  0  0  0
 10 20  1  0  0  0  0
 11 12  2  0  0  0  0
 11 21  1  0  0  0  0
 12 22  1  0  0  0  0
 15 17  1  0  0  0  0
 15 23  1  0  0  0  0
 15 24  1  0  0  0  0
 16 18  1  0  0  0  0
 16 25  1  0  0  0  0
 16 26  1  0  0  0  0
 17 27  1  0  0  0  0
 17 28  1  0  0  0  0
 18 29  1  0  0  0  0
 18 30  1  0  0  0  0
M  END
>  <PUBCHEM_COMPOUND_CID>
13739

>  <PUBCHEM_CONFORMER_RMSD>
0.8

>  <PUBCHEM_CONFORMER_DIVERSEORDER>
1
57
49
30
42
33
44
14
53
22
19
10
12
45
3
41
11
32
40
15
36
55
29
9
38
4
58
17
37
43
52
24
51
35
20
56
31
39
16
2
21
23
28
34
26
18
25
5
46
47
6
48
8
13
50
7
27
54

>  <PUBCHEM_MMFF94_PARTIAL_CHARGES>
24
1 -0.43
10 -0.15
11 -0.15
12 -0.15
13 0.63
14 0.63
15 0.28
16 0.28
17 0.28
18 0.28
19 0.15
2 -0.43
20 0.15
21 0.15
22 0.15
3 -0.57
31 0.4
32 0.4
4 -0.57
5 -0.68
6 -0.68
7 0.09
8 0.09
9 -0.15

>  <PUBCHEM_EFFECTIVE_ROTOR_COUNT>
8

>  <PUBCHEM_PHARMACOPHORE_FEATURES>
7
1 3 acceptor
1 4 acceptor
1 5 acceptor
1 5 donor
1 6 acceptor
1 6 donor
6 7 8 9 10 11 12 rings

>  <PUBCHEM_HEAVY_ATOM_COUNT>
18

>  <PUBCHEM_ATOM_DEF_STEREO_COUNT>
0

>  <PUBCHEM_ATOM_UDEF_STEREO_COUNT>
0

>  <PUBCHEM_BOND_DEF_STEREO_COUNT>
0

>  <PUBCHEM_BOND_UDEF_STEREO_COUNT>
0

>  <PUBCHEM_ISOTOPIC_ATOM_COUNT>
0

>  <PUBCHEM_COMPONENT_COUNT>
1

>  <PUBCHEM_CACTVS_TAUTO_COUNT>
1

>  <PUBCHEM_CONFORMER_ID>
000035AB00000001

>  <PUBCHEM_MMFF94_ENERGY>
44.2295

>  <PUBCHEM_FEATURE_SELFOVERLAP>
35.523

>  <PUBCHEM_SHAPE_FINGERPRINT>
10968037 39 18410012152543713039
11089746 13 12540695946557521839
11806522 49 18410009918986535353
12236239 1 18410855447243259972
13533116 47 16660916683113605170
13862211 1 18410006628598832378
14251718 22 18411136939420945249
14251732 16 18410855494493175089
14528608 73 18409733958879929100
14787075 74 18409729560226607264
15196674 1 18338516313804112001
17834072 33 18412824698380719020
19489759 90 14418129604479230181
200 152 18412260623910614371
20645477 70 18199752449496498934
21267235 1 18412550889973548114
221490 88 18263928916185329587
23272321 79 18409451383816681488
23402539 116 18335415751807977061
23402655 69 18339074883518801269
23559900 14 18262797501097503721
34797466 226 17203614826284060588
350125 39 18411983563781164433
3545911 37 18410577275887755602
4325135 7 18410855468718096782
4340502 62 16732706042963078794
4463277 17 18412265021635592889
474 4 17676779746965951636
474229 33 18411136935353240571
5104073 3 18266741281369621474
7062679 117 18341894121495265503

>  <PUBCHEM_SHAPE_MULTIPOLES>
335.22
13.61
1.83
0.69
0
0
-0.08
0
-1.87
0
-0.09
0
0
-0.86

>  <PUBCHEM_SHAPE_SELFOVERLAP>
687.263

>  <PUBCHEM_SHAPE_VOLUME>
192.6

>  <PUBCHEM_COORDINATE_TYPE>
2
5
10

$$$$
13739
 OpenBabel11092011363D

 32 32  0  0  0  0  0  0  0  0999 V2000
    3.5213   -0.2484    0.7586 O   0  0  0  0  0  0  0  0  0  0  0  0
   -2.6812    2.2971   -0.4954 O   0  0  0  0  0  0  0  0  0  0  0  0
    2.9466   -2.1692   -0.3723 O   0  0  0  0  0  0  0  0  0  0  0  0
   -3.6208    0.5262    0.6360 O   0  0  0  0  0  0  0  0  0  0  0  0
    3.0676    0.9693   -1.7081 O   0  0  0  0  0  0  0  0  0  0  0  0
   -2.5774    0.4508   -2.6004 O   0  0  0  0  0  0  0  0  0  0  0  0
    1.2904   -0.5293    0.1305 C   0  0  0  0  0  0  0  0  0  0  0  0
   -1.2905    0.5298    0.1314 C   0  0  0  0  0  0  0  0  0  0  0  0
    0.1866   -1.3821    0.1311 C   0  0  0  0  0  0  0  0  0  0  0  0
   -1.1039   -0.8526    0.1315 C   0  0  0  0  0  0  0  0  0  0  0  0
    1.1037    0.8530    0.1304 C   0  0  0  0  0  0  0  0  0  0  0  0
   -0.1867    1.3826    0.1310 C   0  0  0  0  0  0  0  0  0  0  0  0
    2.6356   -1.0816    0.1313 C   0  0  0  0  0  0  0  0  0  0  0  0
   -2.6356    1.0817    0.1316 C   0  0  0  0  0  0  0  0  0  0  0  0
    4.6110    0.2470   -0.0266 C   0  0  0  0  0  0  0  0  0  0  0  0
   -3.5508    2.4095   -1.6271 C   0  0  0  0  0  0  0  0  0  0  0  0
    4.1257    1.4124   -0.8671 C   0  0  0  0  0  0  0  0  0  0  0  0
   -2.8589    1.8239   -2.8429 C   0  0  0  0  0  0  0  0  0  0  0  0
    0.3104   -2.4619    0.1314 H   0  0  0  0  0  0  0  0  0  0  0  0
   -1.9332   -1.5543    0.1317 H   0  0  0  0  0  0  0  0  0  0  0  0
    1.9330    1.5547    0.1300 H   0  0  0  0  0  0  0  0  0  0  0  0
   -0.3105    2.4624    0.1308 H   0  0  0  0  0  0  0  0  0  0  0  0
    5.4188    0.5755    0.6362 H   0  0  0  0  0  0  0  0  0  0  0  0
    4.9699   -0.5610   -0.6744 H   0  0  0  0  0  0  0  0  0  0  0  0
   -4.4823    1.8685   -1.4288 H   0  0  0  0  0  0  0  0  0  0  0  0
   -3.7661    3.4708   -1.7957 H   0  0  0  0  0  0  0  0  0  0  0  0
    4.9278    1.8191   -1.4895 H   0  0  0  0  0  0  0  0  0  0  0  0
    3.7265    2.2091   -0.2325 H   0  0  0  0  0  0  0  0  0  0  0  0
   -1.9171    2.3411   -3.0454 H   0  0  0  0  0  0  0  0  0  0  0  0
   -3.4977    1.8833   -3.7295 H   0  0  0  0  0  0  0  0  0  0  0  0
    3.4245    0.2738   -2.2865 H   0  0  0  0  0  0  0  0  0  0  0  0
   -3.4225    0.0093   -2.4089 H   0  0  0  0  0  0  0  0  0  0  0  0
  1 13  1  0  0  0  0
  1 15  1  0  0  0  0
  2 14  1  0  0  0  0
  2 16  1  0  0  0  0
  3 13  2  0  0  0  0
  4 14  2  0  0  0  0
  5 17  1  0  0  0  0
  5 31  1  0  0  0  0
  6 18  1  0  0  0  0
  6 32  1  0  0  0  0
  7  9  2  0  0  0  0
  7 11  1  0  0  0  0
  7 13  1  0  0  0  0
  8 10  2  0  0  0  0
  8 12  1  0  0  0  0
  8 14  1  0  0  0  0
  9 10  1  0  0  0  0
  9 19  1  0  0  0  0
 10 20  1  0  0  0  0
 11 12  2  0  0  0  0
 11 21  1  0  0  0  0
 12 22  1  0  0  0  0
 15 17  1  0  0  0  0
 15 23  1  0  0  0  0
 15 24  1  0  0  0  0
 16 18  1  0  0  0  0
 16 25  1  0  0  0  0
 16 26  1  0  0  0  0
 17 27  1  0  0  0  0
 17 28  1  0  0  0  0
 18 29  1  0  0  0  0
 18 30  1  0  0  0  0
M  END
>  <PUBCHEM_COMPOUND_CID>
13739

>  <PUBCHEM_CONFORMER_RMSD>
0.8

>  <PUBCHEM_CONFORMER_DIVERSEORDER>
1
57
49
30
42
33
44
14
53
22
19
10
12
45
3
41
11
32
40
15
36
55
29
9
38
4
58
17
37
43
52
24
51
35
20
56
31
39
16
2
21
23
28
34
26
18
25
5
46
47
6
48
8
13
50
7
27
54

>  <PUBCHEM_MMFF94_PARTIAL_CHARGES>
24
1 -0.43
10 -0.15
11 -0.15
12 -0.15
13 0.63
14 0.63
15 0.28
16 0.28
17 0.28
18 0.28
19 0.15
2 -0.43
20 0.15
21 0.15
22 0.15
3 -0.57
31 0.4
32 0.4
4 -0.57
5 -0.68
6 -0.68
7 0.09
8 0.09
9 -0.15

>  <PUBCHEM_EFFECTIVE_ROTOR_COUNT>
8

>  <PUBCHEM_PHARMACOPHORE_FEATURES>
7
1 3 acceptor
1 4 acceptor
1 5 acceptor
1 5 donor
1 6 acceptor
1 6 donor
6 7 8 9 10 11 12 rings

>  <PUBCHEM_HEAVY_ATOM_COUNT>
18

>  <PUBCHEM_ATOM_DEF_STEREO_COUNT>
0

>  <PUBCHEM_ATOM_UDEF_STEREO_COUNT>
0

>  <PUBCHEM_BOND_DEF_STEREO_COUNT>
0

>  <PUBCHEM_BOND_UDEF_STEREO_COUNT>
0

>  <PUBCHEM_ISOTOPIC_ATOM_COUNT>
0

>  <PUBCHEM_COMPONENT_COUNT>
1

>  <PUBCHEM_CACTVS_TAUTO_COUNT>
1

>  <PUBCHEM_CONFORMER_ID>
000035AB00000001

>  <PUBCHEM_MMFF94_ENERGY>
44.2295

>  <PUBCHEM_FEATURE_SELFOVERLAP>
35.523

>  <PUBCHEM_SHAPE_FINGERPRINT>
10968037 39 18410012152543713039
11089746 13 12540695946557521839
11806522 49 18410009918986535353
12236239 1 18410855447243259972
13533116 47 16660916683113605170
13862211 1 18410006628598832378
14251718 22 18411136939420945249
14251732 16 18410855494493175089
14528608 73 18409733958879929100
14787075 74 18409729560226607264
15196674 1 18338516313804112001
17834072 33 18412824698380719020
19489759 90 14418129604479230181
200 152 18412260623910614371
20645477 70 18199752449496498934
21267235 1 18412550889973548114
221490 88 18263928916185329587
23272321 79 18409451383816681488
23402539 116 18335415751807977061
23402655 69 18339074883518801269
23559900 14 18262797501097503721
34797466 226 17203614826284060588
350125 39 18411983563781164433
3545911 37 18410577275887755602
4325135 7 18410855468718096782
4340502 62 16732706042963078794
4463277 17 18412265021635592889
474 4 17676779746965951636
474229 33 18411136935353240571
5104073 3 18266741281369621474
7062679 117 18341894121495265503

>  <PUBCHEM_SHAPE_MULTIPOLES>
335.22
13.61
1.83
0.69
0
0
-0.08
0
-1.87
0
-0.09
0
0
-0.86

>  <PUBCHEM_SHAPE_SELFOVERLAP>
687.263

>  <PUBCHEM_SHAPE_VOLUME>
192.6

>  <PUBCHEM_COORDINATE_TYPE>
2
5
10

$$$$
13739
 OpenBabel11092011363D

 32 32  0  0  0  0  0  0  0  0999 V2000
    3.5844   -0.0957    0.1288 O   0  0  0  0  0  0  0  0  0  0  0  0
   -2.6812    2.2971   -0.4954 O   0  0  0  0  0  0  0  0  0  0  0  0
    2.8958   -2.2922    0.1329 O   0  0  0  0  0  0  0  0  0  0  0  0
   -3.6208    0.5262    0.6360 O   0  0  0  0  0  0  0  0  0  0  0  0
    2.6200   -0.1220   -2.4869 O   0  0  0  0  0  0  0  0  0  0  0  0
   -4.9521    0.9580   -1.4444 O   0  0  0  0  0  0  0  0  0  0  0  0
    1.2904   -0.5293    0.1305 C   0  0  0  0  0  0  0  0  0  0  0  0
   -1.2905    0.5298    0.1314 C   0  0  0  0  0  0  0  0  0  0  0  0
    0.1866   -1.3821    0.1311 C   0  0  0  0  0  0  0  0  0  0  0  0
   -1.1039   -0.8526    0.1315 C   0  0  0  0  0  0  0  0  0  0  0  0
    1.1037    0.8530    0.1304 C   0  0  0  0  0  0  0  0  0  0  0  0
   -0.1867    1.3826    0.1310 C   0  0  0  0  0  0  0  0  0  0  0  0
    2.6356   -1.0816    0.1313 C   0  0  0  0  0  0  0  0  0  0  0  0
   -2.6356    1.0817    0.1316 C   0  0  0  0  0  0  0  0  0  0  0  0
    4.4833   -0.0655   -0.9850 C   0  0  0  0  0  0  0  0  0  0  0  0
   -3.9559    2.9460   -0.5576 C   0  0  0  0  0  0  0  0  0  0  0  0
    3.7959    0.6072   -2.1576 C   0  0  0  0  0  0  0  0  0  0  0  0
   -4.7619    2.3455   -1.6932 C   0  0  0  0  0  0  0  0  0  0  0  0
    0.3104   -2.4619    0.1314 H   0  0  0  0  0  0  0  0  0  0  0  0
   -1.9332   -1.5543    0.1317 H   0  0  0  0  0  0  0  0  0  0  0  0
    1.9330    1.5547    0.1300 H   0  0  0  0  0  0  0  0  0  0  0  0
   -0.3105    2.4624    0.1308 H   0  0  0  0  0  0  0  0  0  0  0  0
    5.3854    0.4921   -0.7109 H   0  0  0  0  0  0  0  0  0  0  0  0
    4.7506   -1.0960   -1.2455 H   0  0  0  0  0  0  0  0  0  0  0  0
   -4.4843    2.8076    0.3918 H   0  0  0  0  0  0  0  0  0  0  0  0
   -3.7932    4.0144   -0.7399 H   0  0  0  0  0  0  0  0  0  0  0  0
    4.4473    0.6465   -3.0352 H   0  0  0  0  0  0  0  0  0  0  0  0
    3.4871    1.6235   -1.8957 H   0  0  0  0  0  0  0  0  0  0  0  0
   -4.2404    2.4592   -2.6474 H   0  0  0  0  0  0  0  0  0  0  0  0
   -5.7497    2.8109   -1.7674 H   0  0  0  0  0  0  0  0  0  0  0  0
    2.8932   -1.0208   -2.7384 H   0  0  0  0  0  0  0  0  0  0  0  0
   -5.4040    0.8746   -0.5872 H   0  0  0  0  0  0  0  0  0  0  0  0
  1 13  1  0  0  0  0
  1 15  1  0  0  0  0
  2 14  1  0  0  0  0
  2 16  1  0  0  0  0
  3 13  2  0  0  0  0
  4 14  2  0  0  0  0
  5 17  1  0  0  0  0
  5 31  1  0  0  0  0
  6 18  1  0  0  0  0
  6 32  1  0  0  0  0
  7  9  2  0  0  0  0
  7 11  1  0  0  0  0
  7 13  1  0  0  0  0
  8 10  2  0  0  0  0
  8 12  1  0  0  0  0
  8 14  1  0  0  0  0
  9 10  1  0  0  0  0
  9 19  1  0  0  0  0
 10 20  1  0  0  0  0
 11 12  2  0  0  0  0
 11 21  1  0  0  0  0
 12 22  1  0  0  0  0
 15 17  1  0  0  0  0
 15 23  1  0  0  0  0
 15 24  1  0  0  0  0
 16 18  1  0  0  0  0
 16 25  1  0  0  0  0
 16 26  1  0  0  0  0
 17 27  1  0  0  0  0
 17 28  1  0  0  0  0
 18 29  1  0  0  0  0
 18 30  1  0  0  0  0
M  END
>  <PUBCHEM_COMPOUND_CID>
13739

>  <PUBCHEM_CONFORMER_RMSD>
0.8

>  <PUBCHEM_CONFORMER_DIVERSEORDER>
1
57
49
30
42
33
44
14
53
22
19
10
12
45
3
41
11
32
40
15
36
55
29
9
38
4
58
17
37
43
52
24
51
35
20
56
31
39
16
2
21
23
28
34
26
18
25
5
46
47
6
48
8
13
50
7
27
54

>  <PUBCHEM_MMFF94_PARTIAL_CHARGES>
24
1 -0.43
10 -0.15
11 -0.15
12 -0.15
13 0.63
14 0.63
15 0.28
16 0.28
17 0.28
18 0.28
19 0.15
2 -0.43
20 0.15
21 0.15
22 0.15
3 -0.57
31 0.4
32 0.4
4 -0.57
5 -0.68
6 -0.68
7 0.09
8 0.09
9 -0.15

>  <PUBCHEM_EFFECTIVE_ROTOR_COUNT>
8

>  <PUBCHEM_PHARMACOPHORE_FEATURES>
7
1 3 acceptor
1 4 acceptor
1 5 acceptor
1 5 donor
1 6 acceptor
1 6 donor
6 7 8 9 10 11 12 rings

>  <PUBCHEM_HEAVY_ATOM_COUNT>
18

>  <PUBCHEM_ATOM_DEF_STEREO_COUNT>
0

>  <PUBCHEM_ATOM_UDEF_STEREO_COUNT>
0

>  <PUBCHEM_BOND_DEF_STEREO_COUNT>
0

>  <PUBCHEM_BOND_UDEF_STEREO_COUNT>
0

>  <PUBCHEM_ISOTOPIC_ATOM_COUNT>
0

>  <PUBCHEM_COMPONENT_COUNT>
1

>  <PUBCHEM_CACTVS_TAUTO_COUNT>
1

>  <PUBCHEM_CONFORMER_ID>
000035AB00000001

>  <PUBCHEM_MMFF94_ENERGY>
44.2295

>  <PUBCHEM_FEATURE_SELFOVERLAP>
35.523

>  <PUBCHEM_SHAPE_FINGERPRINT>
10968037 39 18410012152543713039
11089746 13 12540695946557521839
11806522 49 18410009918986535353
12236239 1 18410855447243259972
13533116 47 16660916683113605170
13862211 1 18410006628598832378
14251718 22 18411136939420945249
14251732 16 18410855494493175089
14528608 73 18409733958879929100
14787075 74 18409729560226607264
15196674 1 18338516313804112001
17834072 33 18412824698380719020
19489759 90 14418129604479230181
200 152 18412260623910614371
20645477 70 18199752449496498934
21267235 1 18412550889973548114
221490 88 18263928916185329587
23272321 79 18409451383816681488
23402539 116 18335415751807977061
23402655 69 18339074883518801269
23559900 14 18262797501097503721
34797466 226 17203614826284060588
350125 39 18411983563781164433
3545911 37 18410577275887755602
4325135 7 18410855468718096782
4340502 62 16732706042963078794
4463277 17 18412265021635592889
474 4 17676779746965951636
474229 33 18411136935353240571
5104073 3 18266741281369621474
7062679 117 18341894121495265503

>  <PUBCHEM_SHAPE_MULTIPOLES>
335.22
13.61
1.83
0.69
0
0
-0.08
0
-1.87
0
-0.09
0
0
-0.86

>  <PUBCHEM_SHAPE_SELFOVERLAP>
687.263

>  <PUBCHEM_SHAPE_VOLUME>
192.6

>  <PUBCHEM_COORDINATE_TYPE>
2
5
10

$$$$
13739
 OpenBabel11092011363D

 32 32  0  0  0  0  0  0  0  0999 V2000
    2.6843   -2.2870    0.7769 O   0  0  0  0  0  0  0  0  0  0  0  0
   -3.5178    0.2583   -0.5136 O   0  0  0  0  0  0  0  0  0  0  0  0
    3.6183   -0.5333   -0.3854 O   0  0  0  0  0  0  0  0  0  0  0  0
   -2.9494    2.1624    0.6485 O   0  0  0  0  0  0  0  0  0  0  0  0
    1.7001   -1.7383    3.3271 O   0  0  0  0  0  0  0  0  0  0  0  0
   -4.3868   -1.3968    1.5548 O   0  0  0  0  0  0  0  0  0  0  0  0
    1.2904   -0.5293    0.1305 C   0  0  0  0  0  0  0  0  0  0  0  0
   -1.2905    0.5298    0.1314 C   0  0  0  0  0  0  0  0  0  0  0  0
    0.1866   -1.3821    0.1311 C   0  0  0  0  0  0  0  0  0  0  0  0
   -1.1039   -0.8526    0.1315 C   0  0  0  0  0  0  0  0  0  0  0  0
    1.1037    0.8530    0.1304 C   0  0  0  0  0  0  0  0  0  0  0  0
   -0.1867    1.3826    0.1310 C   0  0  0  0  0  0  0  0  0  0  0  0
    2.6356   -1.0816    0.1313 C   0  0  0  0  0  0  0  0  0  0  0  0
   -2.6356    1.0817    0.1316 C   0  0  0  0  0  0  0  0  0  0  0  0
    3.5346   -2.3720    1.9255 C   0  0  0  0  0  0  0  0  0  0  0  0
   -4.8783    0.2920   -0.0693 C   0  0  0  0  0  0  0  0  0  0  0  0
    2.6963   -2.7355    3.1360 C   0  0  0  0  0  0  0  0  0  0  0  0
   -4.9296   -0.0915    1.3971 C   0  0  0  0  0  0  0  0  0  0  0  0
    0.3104   -2.4619    0.1314 H   0  0  0  0  0  0  0  0  0  0  0  0
   -1.9332   -1.5543    0.1317 H   0  0  0  0  0  0  0  0  0  0  0  0
    1.9330    1.5547    0.1300 H   0  0  0  0  0  0  0  0  0  0  0  0
   -0.3105    2.4624    0.1308 H   0  0  0  0  0  0  0  0  0  0  0  0
    4.2996   -3.1377    1.7575 H   0  0  0  0  0  0  0  0  0  0  0  0
    4.0137   -1.3980    2.0777 H   0  0  0  0  0  0  0  0  0  0  0  0
   -5.2844    1.2997   -0.2080 H   0  0  0  0  0  0  0  0  0  0  0  0
   -5.4554   -0.4261   -0.6629 H   0  0  0  0  0  0  0  0  0  0  0  0
    3.3074   -2.8053    4.0403 H   0  0  0  0  0  0  0  0  0  0  0  0
    2.1798   -3.6870    2.9791 H   0  0  0  0  0  0  0  0  0  0  0  0
   -5.9590   -0.0963    1.7656 H   0  0  0  0  0  0  0  0  0  0  0  0
   -4.3342    0.5948    2.0072 H   0  0  0  0  0  0  0  0  0  0  0  0
    2.1567   -0.8944    3.4856 H   0  0  0  0  0  0  0  0  0  0  0  0
   -3.4776   -1.3782    1.2103 H   0  0  0  0  0  0  0  0  0  0  0  0
  1 13  1  0  0  0  0
  1 15  1  0  0  0  0
  2 14  1  0  0  0  0
  2 16  1  0  0  0  0
  3 13  2  0  0  0  0
  4 14  2  0  0  0  0
  5 17  1  0  0  0  0
  5 31  1  0  0  0  0
  6 18  1  0  0  0  0
  6 32  1  0  0  0  0
  7  9  2  0  0  0  0
  7 11  1  0  0  0  0
  7 13  1  0  0  0  0
  8 10  2  0  0  0  0
  8 12  1  0  0  0  0
  8 14  1  0  0  0  0
  9 10  1  0  0  0  0
  9 19  1  0  0  0  0
 10 20  1  0  0  0  0
 11 12  2  0  0  0  0
 11 21  1  0  0  0  0
 12 22  1  0  0  0  0
 15 17  1  0  0  0  0
 15 23  1  0  0  0  0
 15 24  1  0  0  0  0
 16 18  1  0  0  0  0
 16 25  1  0  0  0  0
 16 26  1  0  0  0  0
 17 27  1  0  0  0  0
 17 28  1  0  0  0  0
 18 29  1  0  0  0  0
 18 30  1  0  0  0  0
M  END
>  <PUBCHEM_COMPOUND_CID>
13739

>  <PUBCHEM_CONFORMER_RMSD>
0.8

>  <PUBCHEM_CONFORMER_DIVERSEORDER>
1
57
49
30
42
33
44
14
53
22
19
10
12
45
3
41
11
32
40
15
36
55
29
9
38
4
58
17
37
43
52
24
51
35
20
56
31
39
16
2
21
23
28
34
26
18
25
5
46
47
6
48
8
13
50
7
27
54

>  <PUBCHEM_MMFF94_PARTIAL_CHARGES>
24
1 -0.43
10 -0.15
11 -0.15
12 -0.15
13 0.63
14 0.63
15 0.28
16 0.28
17 0.28
18 0.28
19 0.15
2 -0.43
20 0.15
21 0.15
22 0.15
3 -0.57
31 0.4
32 0.4
4 -0.57
5 -0.68
6 -0.68
7 0.09
8 0.09
9 -0.15

>  <PUBCHEM_EFFECTIVE_ROTOR_COUNT>
8

>  <PUBCHEM_PHARMACOPHORE_FEATURES>
7
1 3 acceptor
1 4 acceptor
1 5 acceptor
1 5 donor
1 6 acceptor
1 6 donor
6 7 8 9 10 11 12 rings

>  <PUBCHEM_HEAVY_ATOM_COUNT>
18

>  <PUBCHEM_ATOM_DEF_STEREO_COUNT>
0

>  <PUBCHEM_ATOM_UDEF_STEREO_COUNT>
0

>  <PUBCHEM_BOND_DEF_STEREO_COUNT>
0

>  <PUBCHEM_BOND_UDEF_STEREO_COUNT>
0

>  <PUBCHEM_ISOTOPIC_ATOM_COUNT>
0

>  <PUBCHEM_COMPONENT_COUNT>
1

>  <PUBCHEM_CACTVS_TAUTO_COUNT>
1

>  <PUBCHEM_CONFORMER_ID>
000035AB00000001

>  <PUBCHEM_MMFF94_ENERGY>
44.2295

>  <PUBCHEM_FEATURE_SELFOVERLAP>
35.523

>  <PUBCHEM_SHAPE_FINGERPRINT>
10968037 39 18410012152543713039
11089746 13 12540695946557521839
11806522 49 18410009918986535353
12236239 1 18410855447243259972
13533116 47 16660916683113605170
13862211 1 18410006628598832378
14251718 22 18411136939420945249
14251732 16 18410855494493175089
14528608 73 18409733958879929100
14787075 74 18409729560226607264
15196674 1 18338516313804112001
17834072 33 18412824698380719020
19489759 90 14418129604479230181
200 152 18412260623910614371
20645477 70 18199752449496498934
21267235 1 18412550889973548114
221490 88 18263928916185329587
23272321 79 18409451383816681488
23402539 116 18335415751807977061
23402655 69 18339074883518801269
23559900 14 18262797501097503721
34797466 226 17203614826284060588
350125 39 18411983563781164433
3545911 37 18410577275887755602
4325135 7 18410855468718096782
4340502 62 16732706042963078794
4463277 17 18412265021635592889
474 4 17676779746965951636
474229 33 18411136935353240571
5104073 3 18266741281369621474
7062679 117 18341894121495265503

>  <PUBCHEM_SHAPE_MULTIPOLES>
335.22
13.61
1.83
0.69
0
0
-0.08
0
-1.87
0
-0.09
0
0
-0.86

>  <PUBCHEM_SHAPE_SELFOVERLAP>
687.263

>  <PUBCHEM_SHAPE_VOLUME>
192.6

>  <PUBCHEM_COORDINATE_TYPE>
2
5
10

$$$$
13739
 OpenBabel11092011363D

 32 32  0  0  0  0  0  0  0  0999 V2000
    3.5844   -0.0957    0.1288 O   0  0  0  0  0  0  0  0  0  0  0  0
   -3.5178    0.2583   -0.5136 O   0  0  0  0  0  0  0  0  0  0  0  0
    2.8958   -2.2922    0.1329 O   0  0  0  0  0  0  0  0  0  0  0  0
   -2.9494    2.1624    0.6485 O   0  0  0  0  0  0  0  0  0  0  0  0
    6.4915   -1.1040    2.0786 O   0  0  0  0  0  0  0  0  0  0  0  0
   -4.4371    1.8240   -2.6476 O   0  0  0  0  0  0  0  0  0  0  0  0
    1.2904   -0.5293    0.1305 C   0  0  0  0  0  0  0  0  0  0  0  0
   -1.2905    0.5298    0.1314 C   0  0  0  0  0  0  0  0  0  0  0  0
    0.1866   -1.3821    0.1311 C   0  0  0  0  0  0  0  0  0  0  0  0
   -1.1039   -0.8526    0.1315 C   0  0  0  0  0  0  0  0  0  0  0  0
    1.1037    0.8530    0.1304 C   0  0  0  0  0  0  0  0  0  0  0  0
   -0.1867    1.3826    0.1310 C   0  0  0  0  0  0  0  0  0  0  0  0
    2.6356   -1.0816    0.1313 C   0  0  0  0  0  0  0  0  0  0  0  0
   -2.6356    1.0817    0.1316 C   0  0  0  0  0  0  0  0  0  0  0  0
    4.5030   -0.0788    1.2267 C   0  0  0  0  0  0  0  0  0  0  0  0
   -4.8792    0.6956   -0.5831 C   0  0  0  0  0  0  0  0  0  0  0  0
    5.5879   -1.1094    0.9800 C   0  0  0  0  0  0  0  0  0  0  0  0
   -4.9380    2.0141   -1.3299 C   0  0  0  0  0  0  0  0  0  0  0  0
    0.3104   -2.4619    0.1314 H   0  0  0  0  0  0  0  0  0  0  0  0
   -1.9332   -1.5543    0.1317 H   0  0  0  0  0  0  0  0  0  0  0  0
    1.9330    1.5547    0.1300 H   0  0  0  0  0  0  0  0  0  0  0  0
   -0.3105    2.4624    0.1308 H   0  0  0  0  0  0  0  0  0  0  0  0
    4.9480    0.9181    1.3149 H   0  0  0  0  0  0  0  0  0  0  0  0
    3.9545   -0.3213    2.1441 H   0  0  0  0  0  0  0  0  0  0  0  0
   -5.4800   -0.0577   -1.1040 H   0  0  0  0  0  0  0  0  0  0  0  0
   -5.2539    0.8284    0.4382 H   0  0  0  0  0  0  0  0  0  0  0  0
    6.1430   -0.8952    0.0623 H   0  0  0  0  0  0  0  0  0  0  0  0
    5.1610   -2.1144    0.9135 H   0  0  0  0  0  0  0  0  0  0  0  0
   -4.3288    2.7740   -0.8329 H   0  0  0  0  0  0  0  0  0  0  0  0
   -5.9670    2.3776   -1.4120 H   0  0  0  0  0  0  0  0  0  0  0  0
    6.8869   -0.2170    2.1287 H   0  0  0  0  0  0  0  0  0  0  0  0
   -4.9804    1.1367   -3.0698 H   0  0  0  0  0  0  0  0  0  0  0  0
  1 13  1  0  0  0  0
  1 15  1  0  0  0  0
  2 14  1  0  0  0  0
  2 16  1  0  0  0  0
  3 13  2  0  0  0  0
  4 14  2  0  0  0  0
  5 17  1  0  0  0  0
  5 31  1  0  0  0  0
  6 18  1  0  0  0  0
  6 32  1  0  0  0  0
  7  9  2  0  0  0  0
  7 11  1  0  0  0  0
  7 13  1  0  0  0  0
  8 10  2  0  0  0  0
  8 12  1  0  0  0  0
  8 14  1  0  0  0  0
  9 10  1  0  0  0  0
  9 19  1  0  0  0  0
 10 20  1  0  0  0  0
 11 12  2  0  0  0  0
 11 21  1  0  0  0  0
 12 22  1  0  0  0  0
 15 17  1  0  0  0  0
 15 23  1  0  0  0  0
 15 24  1  0  0  0  0
 16 18  1  0  0  0  0
 16 25  1  0  0  0  0
 16 26  1  0  0  0  0
 17 27  1  0  0  0  0
 17 28  1  0  0  0  0
 18 29  1  0  0  0  0
 18 30  1  0  0  0  0
M  END
>  <PUBCHEM_COMPOUND_CID>
13739

>  <PUBCHEM_CONFORMER_RMSD>
0.8

>  <PUBCHEM_CONFORMER_DIVERSEORDER>
1
57
49
30
42
33
44
14
53
22
19
10
12
45
3
41
11
32
40
15
36
55
29
9
38
4
58
17
37
43
52
24
51
35
20
56
31
39
16
2
21
23
28
34
26
18
25
5
46
47
6
48
8
13
50
7
27
54

>  <PUBCHEM_MMFF94_PARTIAL_CHARGES>
24
1 -0.43
10 -0.15
11 -0.15
12 -0.15
13 0.63
14 0.63
15 0.28
16 0.28
17 0.28
18 0.28
19 0.15
2 -0.43
20 0.15
21 0.15
22 0.15
3 -0.57
31 0.4
32 0.4
4 -0.57
5 -0.68
6 -0.68
7 0.09
8 0.09
9 -0.15

>  <PUBCHEM_EFFECTIVE_ROTOR_COUNT>
8

>  <PUBCHEM_PHARMACOPHORE_FEATURES>
7
1 3 acceptor
1 4 acceptor
1 5 acceptor
1 5 donor
1 6 acceptor
1 6 donor
6 7 8 9 10 11 12 rings

>  <PUBCHEM_HEAVY_ATOM_COUNT>
18

>  <PUBCHEM_ATOM_DEF_STEREO_COUNT>
0

>  <PUBCHEM_ATOM_UDEF_STEREO_COUNT>
0

>  <PUBCHEM_BOND_DEF_STEREO_COUNT>
0

>  <PUBCHEM_BOND_UDEF_STEREO_COUNT>
0

>  <PUBCHEM_ISOTOPIC_ATOM_COUNT>
0

>  <PUBCHEM_COMPONENT_COUNT>
1

>  <PUBCHEM_CACTVS_TAUTO_COUNT>
1

>  <PUBCHEM_CONFORMER_ID>
000035AB00000001

>  <PUBCHEM_MMFF94_ENERGY>
44.2295

>  <PUBCHEM_FEATURE_SELFOVERLAP>
35.523

>  <PUBCHEM_SHAPE_FINGERPRINT>
10968037 39 18410012152543713039
11089746 13 12540695946557521839
11806522 49 18410009918986535353
12236239 1 18410855447243259972
13533116 47 16660916683113605170
13862211 1 18410006628598832378
14251718 22 18411136939420945249
14251732 16 18410855494493175089
14528608 73 18409733958879929100
14787075 74 18409729560226607264
15196674 1 18338516313804112001
17834072 33 18412824698380719020
19489759 90 14418129604479230181
200 152 18412260623910614371
20645477 70 18199752449496498934
21267235 1 18412550889973548114
221490 88 18263928916185329587
23272321 79 18409451383816681488
23402539 116 18335415751807977061
23402655 69 18339074883518801269
23559900 14 18262797501097503721
34797466 226 17203614826284060588
350125 39 18411983563781164433
3545911 37 18410577275887755602
4325135 7 18410855468718096782
4340502 62 16732706042963078794
4463277 17 18412265021635592889
474 4 17676779746965951636
474229 33 18411136935353240571
5104073 3 18266741281369621474
7062679 117 18341894121495265503

>  <PUBCHEM_SHAPE_MULTIPOLES>
335.22
13.61
1.83
0.69
0
0
-0.08
0
-1.87
0
-0.09
0
0
-0.86

>  <PUBCHEM_SHAPE_SELFOVERLAP>
687.263

>  <PUBCHEM_SHAPE_VOLUME>
192.6

>  <PUBCHEM_COORDINATE_TYPE>
2
5
10

$$$$
13739
 OpenBabel11092011363D

 32 32  0  0  0  0  0  0  0  0999 V2000
    3.5844   -0.0957    0.1288 O   0  0  0  0  0  0  0  0  0  0  0  0
   -3.5178    0.2583   -0.5136 O   0  0  0  0  0  0  0  0  0  0  0  0
    2.8958   -2.2922    0.1329 O   0  0  0  0  0  0  0  0  0  0  0  0
   -2.9494    2.1624    0.6485 O   0  0  0  0  0  0  0  0  0  0  0  0
    4.6833    0.6226   -3.2692 O   0  0  0  0  0  0  0  0  0  0  0  0
   -5.9332    1.6746   -0.4113 O   0  0  0  0  0  0  0  0  0  0  0  0
    1.2904   -0.5293    0.1305 C   0  0  0  0  0  0  0  0  0  0  0  0
   -1.2905    0.5298    0.1314 C   0  0  0  0  0  0  0  0  0  0  0  0
    0.1866   -1.3821    0.1311 C   0  0  0  0  0  0  0  0  0  0  0  0
   -1.1039   -0.8526    0.1315 C   0  0  0  0  0  0  0  0  0  0  0  0
    1.1037    0.8530    0.1304 C   0  0  0  0  0  0  0  0  0  0  0  0
   -0.1867    1.3826    0.1310 C   0  0  0  0  0  0  0  0  0  0  0  0
    2.6356   -1.0816    0.1313 C   0  0  0  0  0  0  0  0  0  0  0  0
   -2.6356    1.0817    0.1316 C   0  0  0  0  0  0  0  0  0  0  0  0
    4.4833   -0.0655   -0.9850 C   0  0  0  0  0  0  0  0  0  0  0  0
   -4.6304   -0.2225    0.2483 C   0  0  0  0  0  0  0  0  0  0  0  0
    3.7959    0.6072   -2.1576 C   0  0  0  0  0  0  0  0  0  0  0  0
   -5.4541    0.9598    0.7213 C   0  0  0  0  0  0  0  0  0  0  0  0
    0.3104   -2.4619    0.1314 H   0  0  0  0  0  0  0  0  0  0  0  0
   -1.9332   -1.5543    0.1317 H   0  0  0  0  0  0  0  0  0  0  0  0
    1.9330    1.5547    0.1300 H   0  0  0  0  0  0  0  0  0  0  0  0
   -0.3105    2.4624    0.1308 H   0  0  0  0  0  0  0  0  0  0  0  0
    5.3854    0.4921   -0.7109 H   0  0  0  0  0  0  0  0  0  0  0  0
    4.7506   -1.0960   -1.2455 H   0  0  0  0  0  0  0  0  0  0  0  0
   -5.2440   -0.8818   -0.3751 H   0  0  0  0  0  0  0  0  0  0  0  0
   -4.2463   -0.7784    1.1111 H   0  0  0  0  0  0  0  0  0  0  0  0
    3.5087    1.6350   -1.9179 H   0  0  0  0  0  0  0  0  0  0  0  0
    2.9053    0.0479   -2.4586 H   0  0  0  0  0  0  0  0  0  0  0  0
   -4.8519    1.6386    1.3313 H   0  0  0  0  0  0  0  0  0  0  0  0
   -6.3218    0.6314    1.3017 H   0  0  0  0  0  0  0  0  0  0  0  0
    5.4681    1.1353   -3.0107 H   0  0  0  0  0  0  0  0  0  0  0  0
   -6.4542    1.0539   -0.9490 H   0  0  0  0  0  0  0  0  0  0  0  0
  1 13  1  0  0  0  0
  1 15  1  0  0  0  0
  2 14  1  0  0  0  0
  2 16  1  0  0  0  0
  3 13  2  0  0  0  0
  4 14  2  0  0  0  0
  5 17  1  0  0  0  0
  5 31  1  0  0  0  0
  6 18  1  0  0  0  0
  6 32  1  0  0  0  0
  7  9  2  0  0  0  0
  7 11  1  0  0  0  0
  7 13  1  0  0  0  0
  8 10  2  0  0  0  0
  8 12  1  0  0  0  0
  8 14  1  0  0  0  0
  9 10  1  0  0  0  0
  9 19  1  0  0  0  0
 10 20  1  0  0  0  0
 11 12  2  0  0  0  0
 11 21  1  0  0  0  0
 12 22  1  0  0  0  0
 15 17  1  0  0  0  0
 15 23  1  0  0  0  0
 15 24  1  0  0  0  0
 16 18  1  0  0  0  0
 16 25  1  0  0  0  0
 16 26  1  0  0  0  0
 17 27  1  0  0  0  0
 17 28  1  0  0  0  0
 18 29  1  0  0  0  0
 18 30  1  0  0  0  0
M  END
>  <PUBCHEM_COMPOUND_CID>
13739

>  <PUBCHEM_CONFORMER_RMSD>
0.8

>  <PUBCHEM_CONFORMER_DIVERSEORDER>
1
57
49
30
42
33
44
14
53
22
19
10
12
45
3
41
11
32
40
15
36
55
29
9
38
4
58
17
37
43
52
24
51
35
20
56
31
39
16
2
21
23
28
34
26
18
25
5
46
47
6
48
8
13
50
7
27
54

>  <PUBCHEM_MMFF94_PARTIAL_CHARGES>
24
1 -0.43
10 -0.15
11 -0.15
12 -0.15
13 0.63
14 0.63
15 0.28
16 0.28
17 0.28
18 0.28
19 0.15
2 -0.43
20 0.15
21 0.15
22 0.15
3 -0.57
31 0.4
32 0.4
4 -0.57
5 -0.68
6 -0.68
7 0.09
8 0.09
9 -0.15

>  <PUBCHEM_EFFECTIVE_ROTOR_COUNT>
8

>  <PUBCHEM_PHARMACOPHORE_FEATURES>
7
1 3 acceptor
1 4 acceptor
1 5 acceptor
1 5 donor
1 6 acceptor
1 6 donor
6 7 8 9 10 11 12 rings

>  <PUBCHEM_HEAVY_ATOM_COUNT>
18

>  <PUBCHEM_ATOM_DEF_STEREO_COUNT>
0

>  <PUBCHEM_ATOM_UDEF_STEREO_COUNT>
0

>  <PUBCHEM_BOND_DEF_STEREO_COUNT>
0

>  <PUBCHEM_BOND_UDEF_STEREO_COUNT>
0

>  <PUBCHEM_ISOTOPIC_ATOM_COUNT>
0

>  <PUBCHEM_COMPONENT_COUNT>
1

>  <PUBCHEM_CACTVS_TAUTO_COUNT>
1

>  <PUBCHEM_CONFORMER_ID>
000035AB00000001

>  <PUBCHEM_MMFF94_ENERGY>
44.2295

>  <PUBCHEM_FEATURE_SELFOVERLAP>
35.523

>  <PUBCHEM_SHAPE_FINGERPRINT>
10968037 39 18410012152543713039
11089746 13 12540695946557521839
11806522 49 18410009918986535353
12236239 1 18410855447243259972
13533116 47 16660916683113605170
13862211 1 18410006628598832378
14251718 22 18411136939420945249
14251732 16 18410855494493175089
14528608 73 18409733958879929100
14787075 74 18409729560226607264
15196674 1 18338516313804112001
17834072 33 18412824698380719020
19489759 90 14418129604479230181
200 152 18412260623910614371
20645477 70 18199752449496498934
21267235 1 18412550889973548114
221490 88 18263928916185329587
23272321 79 18409451383816681488
23402539 116 18335415751807977061
23402655 69 18339074883518801269
23559900 14 18262797501097503721
34797466 226 17203614826284060588
350125 39 18411983563781164433
3545911 37 18410577275887755602
4325135 7 18410855468718096782
4340502 62 16732706042963078794
4463277 17 18412265021635592889
474 4 17676779746965951636
474229 33 18411136935353240571
5104073 3 18266741281369621474
7062679 117 18341894121495265503

>  <PUBCHEM_SHAPE_MULTIPOLES>
335.22
13.61
1.83
0.69
0
0
-0.08
0
-1.87
0
-0.09
0
0
-0.86

>  <PUBCHEM_SHAPE_SELFOVERLAP>
687.263

>  <PUBCHEM_SHAPE_VOLUME>
192.6

>  <PUBCHEM_COORDINATE_TYPE>
2
5
10

$$$$
13739
 OpenBabel11092011363D

 32 32  0  0  0  0  0  0  0  0999 V2000
    3.5213   -0.2484    0.7586 O   0  0  0  0  0  0  0  0  0  0  0  0
   -3.5178    0.2583   -0.5136 O   0  0  0  0  0  0  0  0  0  0  0  0
    2.9466   -2.1692   -0.3723 O   0  0  0  0  0  0  0  0  0  0  0  0
   -2.9494    2.1624    0.6485 O   0  0  0  0  0  0  0  0  0  0  0  0
    5.6378    1.5877    0.7699 O   0  0  0  0  0  0  0  0  0  0  0  0
   -4.6723   -0.8440   -2.8163 O   0  0  0  0  0  0  0  0  0  0  0  0
    1.2904   -0.5293    0.1305 C   0  0  0  0  0  0  0  0  0  0  0  0
   -1.2905    0.5298    0.1314 C   0  0  0  0  0  0  0  0  0  0  0  0
    0.1866   -1.3821    0.1311 C   0  0  0  0  0  0  0  0  0  0  0  0
   -1.1039   -0.8526    0.1315 C   0  0  0  0  0  0  0  0  0  0  0  0
    1.1037    0.8530    0.1304 C   0  0  0  0  0  0  0  0  0  0  0  0
   -0.1867    1.3826    0.1310 C   0  0  0  0  0  0  0  0  0  0  0  0
    2.6356   -1.0816    0.1313 C   0  0  0  0  0  0  0  0  0  0  0  0
   -2.6356    1.0817    0.1316 C   0  0  0  0  0  0  0  0  0  0  0  0
    4.8835   -0.6837    0.8249 C   0  0  0  0  0  0  0  0  0  0  0  0
   -4.6330    0.8827   -1.1586 C   0  0  0  0  0  0  0  0  0  0  0  0
    5.7620    0.3300    0.1172 C   0  0  0  0  0  0  0  0  0  0  0  0
   -4.5888    0.5650   -2.6408 C   0  0  0  0  0  0  0  0  0  0  0  0
    0.3104   -2.4619    0.1314 H   0  0  0  0  0  0  0  0  0  0  0  0
   -1.9332   -1.5543    0.1317 H   0  0  0  0  0  0  0  0  0  0  0  0
    1.9330    1.5547    0.1300 H   0  0  0  0  0  0  0  0  0  0  0  0
   -0.3105    2.4624    0.1308 H   0  0  0  0  0  0  0  0  0  0  0  0
    5.1873   -0.7736    1.8734 H   0  0  0  0  0  0  0  0  0  0  0  0
    4.9622   -1.6596    0.3322 H   0  0  0  0  0  0  0  0  0  0  0  0
   -5.5654    0.5085   -0.7224 H   0  0  0  0  0  0  0  0  0  0  0  0
   -4.5602    1.9657   -1.0069 H   0  0  0  0  0  0  0  0  0  0  0  0
    5.4764    0.4444   -0.9323 H   0  0  0  0  0  0  0  0  0  0  0  0
    6.8145    0.0367    0.1715 H   0  0  0  0  0  0  0  0  0  0  0  0
   -3.6557    0.9164   -3.0897 H   0  0  0  0  0  0  0  0  0  0  0  0
   -5.4332    1.0189   -3.1688 H   0  0  0  0  0  0  0  0  0  0  0  0
    4.7063    1.8600    0.7067 H   0  0  0  0  0  0  0  0  0  0  0  0
   -5.4995   -1.1412   -2.4001 H   0  0  0  0  0  0  0  0  0  0  0  0
  1 13  1  0  0  0  0
  1 15  1  0  0  0  0
  2 14  1  0  0  0  0
  2 16  1  0  0  0  0
  3 13  2  0  0  0  0
  4 14  2  0  0  0  0
  5 17  1  0  0  0  0
  5 31  1  0  0  0  0
  6 18  1  0  0  0  0
  6 32  1  0  0  0  0
  7  9  2  0  0  0  0
  7 11  1  0  0  0  0
  7 13  1  0  0  0  0
  8 10  2  0  0  0  0
  8 12  1  0  0  0  0
  8 14  1  0  0  0  0
  9 10  1  0  0  0  0
  9 19  1  0  0  0  0
 10 20  1  0  0  0  0
 11 12  2  0  0  0  0
 11 21  1  0  0  0  0
 12 22  1  0  0  0  0
 15 17  1  0  0  0  0
 15 23  1  0  0  0  0
 15 24  1  0  0  0  0
 16 18  1  0  0  0  0
 16 25  1  0  0  0  0
 16 26  1  0  0  0  0
 17 27  1  0  0  0  0
 17 28  1  0  0  0  0
 18 29  1  0  0  0  0
 18 30  1  0  0  0  0
M  END
>  <PUBCHEM_COMPOUND_CID>
13739

>  <PUBCHEM_CONFORMER_RMSD>
0.8

>  <PUBCHEM_CONFORMER_DIVERSEORDER>
1
57
49
30
42
33
44
14
53
22
19
10
12
45
3
41
11
32
40
15
36
55
29
9
38
4
58
17
37
43
52
24
51
35
20
56
31
39
16
2
21
23
28
34
26
18
25
5
46
47
6
48
8
13
50
7
27
54

>  <PUBCHEM_MMFF94_PARTIAL_CHARGES>
24
1 -0.43
10 -0.15
11 -0.15
12 -0.15
13 0.63
14 0.63
15 0.28
16 0.28
17 0.28
18 0.28
19 0.15
2 -0.43
20 0.15
21 0.15
22 0.15
3 -0.57
31 0.4
32 0.4
4 -0.57
5 -0.68
6 -0.68
7 0.09
8 0.09
9 -0.15

>  <PUBCHEM_EFFECTIVE_ROTOR_COUNT>
8

>  <PUBCHEM_PHARMACOPHORE_FEATURES>
7
1 3 acceptor
1 4 acceptor
1 5 acceptor
1 5 donor
1 6 acceptor
1 6 donor
6 7 8 9 10 11 12 rings

>  <PUBCHEM_HEAVY_ATOM_COUNT>
18

>  <PUBCHEM_ATOM_DEF_STEREO_COUNT>
0

>  <PUBCHEM_ATOM_UDEF_STEREO_COUNT>
0

>  <PUBCHEM_BOND_DEF_STEREO_COUNT>
0

>  <PUBCHEM_BOND_UDEF_STEREO_COUNT>
0

>  <PUBCHEM_ISOTOPIC_ATOM_COUNT>
0

>  <PUBCHEM_COMPONENT_COUNT>
1

>  <PUBCHEM_CACTVS_TAUTO_COUNT>
1

>  <PUBCHEM_CONFORMER_ID>
000035AB00000001

>  <PUBCHEM_MMFF94_ENERGY>
44.2295

>  <PUBCHEM_FEATURE_SELFOVERLAP>
35.523

>  <PUBCHEM_SHAPE_FINGERPRINT>
10968037 39 18410012152543713039
11089746 13 12540695946557521839
11806522 49 18410009918986535353
12236239 1 18410855447243259972
13533116 47 16660916683113605170
13862211 1 18410006628598832378
14251718 22 18411136939420945249
14251732 16 18410855494493175089
14528608 73 18409733958879929100
14787075 74 18409729560226607264
15196674 1 18338516313804112001
17834072 33 18412824698380719020
19489759 90 14418129604479230181
200 152 18412260623910614371
20645477 70 18199752449496498934
21267235 1 18412550889973548114
221490 88 18263928916185329587
23272321 79 18409451383816681488
23402539 116 18335415751807977061
23402655 69 18339074883518801269
23559900 14 18262797501097503721
34797466 226 17203614826284060588
350125 39 18411983563781164433
3545911 37 18410577275887755602
4325135 7 18410855468718096782
4340502 62 16732706042963078794
4463277 17 18412265021635592889
474 4 17676779746965951636
474229 33 18411136935353240571
5104073 3 18266741281369621474
7062679 117 18341894121495265503

>  <PUBCHEM_SHAPE_MULTIPOLES>
335.22
13.61
1.83
0.69
0
0
-0.08
0
-1.87
0
-0.09
0
0
-0.86

>  <PUBCHEM_SHAPE_SELFOVERLAP>
687.263

>  <PUBCHEM_SHAPE_VOLUME>
192.6

>  <PUBCHEM_COORDINATE_TYPE>
2
5
10

$$$$
13739
 OpenBabel11092011363D

 32 32  0  0  0  0  0  0  0  0999 V2000
    3.5213   -0.2484    0.7586 O   0  0  0  0  0  0  0  0  0  0  0  0
   -3.5178    0.2583   -0.5136 O   0  0  0  0  0  0  0  0  0  0  0  0
    2.9466   -2.1692   -0.3723 O   0  0  0  0  0  0  0  0  0  0  0  0
   -2.9494    2.1624    0.6485 O   0  0  0  0  0  0  0  0  0  0  0  0
    2.4299   -0.0607    3.3171 O   0  0  0  0  0  0  0  0  0  0  0  0
   -6.5555    2.2533   -0.7631 O   0  0  0  0  0  0  0  0  0  0  0  0
    1.2904   -0.5293    0.1305 C   0  0  0  0  0  0  0  0  0  0  0  0
   -1.2905    0.5298    0.1314 C   0  0  0  0  0  0  0  0  0  0  0  0
    0.1866   -1.3821    0.1311 C   0  0  0  0  0  0  0  0  0  0  0  0
   -1.1039   -0.8526    0.1315 C   0  0  0  0  0  0  0  0  0  0  0  0
    1.1037    0.8530    0.1304 C   0  0  0  0  0  0  0  0  0  0  0  0
   -0.1867    1.3826    0.1310 C   0  0  0  0  0  0  0  0  0  0  0  0
    2.6356   -1.0816    0.1313 C   0  0  0  0  0  0  0  0  0  0  0  0
   -2.6356    1.0817    0.1316 C   0  0  0  0  0  0  0  0  0  0  0  0
    4.2156   -0.7778    1.8930 C   0  0  0  0  0  0  0  0  0  0  0  0
   -4.6330    0.8827   -1.1586 C   0  0  0  0  0  0  0  0  0  0  0  0
    3.2033   -1.1942    2.9427 C   0  0  0  0  0  0  0  0  0  0  0  0
   -5.4383    1.6464   -0.1252 C   0  0  0  0  0  0  0  0  0  0  0  0
    0.3104   -2.4619    0.1314 H   0  0  0  0  0  0  0  0  0  0  0  0
   -1.9332   -1.5543    0.1317 H   0  0  0  0  0  0  0  0  0  0  0  0
    1.9330    1.5547    0.1300 H   0  0  0  0  0  0  0  0  0  0  0  0
   -0.3105    2.4624    0.1308 H   0  0  0  0  0  0  0  0  0  0  0  0
    4.8116   -1.6436    1.5849 H   0  0  0  0  0  0  0  0  0  0  0  0
    4.8747    0.0011    2.2933 H   0  0  0  0  0  0  0  0  0  0  0  0
   -4.2720    1.5673   -1.9337 H   0  0  0  0  0  0  0  0  0  0  0  0
   -5.2536    0.1017   -1.6124 H   0  0  0  0  0  0  0  0  0  0  0  0
    3.6925   -1.6003    3.8326 H   0  0  0  0  0  0  0  0  0  0  0  0
    2.5130   -1.9421    2.5414 H   0  0  0  0  0  0  0  0  0  0  0  0
   -4.8356    2.4309    0.3405 H   0  0  0  0  0  0  0  0  0  0  0  0
   -5.8194    0.9782    0.6533 H   0  0  0  0  0  0  0  0  0  0  0  0
    3.0386    0.5987    3.6918 H   0  0  0  0  0  0  0  0  0  0  0  0
   -7.0723    1.5444   -1.1828 H   0  0  0  0  0  0  0  0  0  0  0  0
  1 13  1  0  0  0  0
  1 15  1  0  0  0  0
  2 14  1  0  0  0  0
  2 16  1  0  0  0  0
  3 13  2  0  0  0  0
  4 14  2  0  0  0  0
  5 17  1  0  0  0  0
  5 31  1  0  0  0  0
  6 18  1  0  0  0  0
  6 32  1  0  0  0  0
  7  9  2  0  0  0  0
  7 11  1  0  0  0  0
  7 13  1  0  0  0  0
  8 10  2  0  0  0  0
  8 12  1  0  0  0  0
  8 14  1  0  0  0  0
  9 10  1  0  0  0  0
  9 19  1  0  0  0  0
 10 20  1  0  0  0  0
 11 12  2  0  0  0  0
 11 21  1  0  0  0  0
 12 22  1  0  0  0  0
 15 17  1  0  0  0  0
 15 23  1  0  0  0  0
 15 24  1  0  0  0  0
 16 18  1  0  0  0  0
 16 25  1  0  0  0  0
 16 26  1  0  0  0  0
 17 27  1  0  0  0  0
 17 28  1  0  0  0  0
 18 29  1  0  0  0  0
 18 30  1  0  0  0  0
M  END
>  <PUBCHEM_COMPOUND_CID>
13739

>  <PUBCHEM_CONFORMER_RMSD>
0.8

>  <PUBCHEM_CONFORMER_DIVERSEORDER>
1
57
49
30
42
33
44
14
53
22
19
10
12
45
3
41
11
32
40
15
36
55
29
9
38
4
58
17
37
43
52
24
51
35
20
56
31
39
16
2
21
23
28
34
26
18
25
5
46
47
6
48
8
13
50
7
27
54

>  <PUBCHEM_MMFF94_PARTIAL_CHARGES>
24
1 -0.43
10 -0.15
11 -0.15
12 -0.15
13 0.63
14 0.63
15 0.28
16 0.28
17 0.28
18 0.28
19 0.15
2 -0.43
20 0.15
21 0.15
22 0.15
3 -0.57
31 0.4
32 0.4
4 -0.57
5 -0.68
6 -0.68
7 0.09
8 0.09
9 -0.15

>  <PUBCHEM_EFFECTIVE_ROTOR_COUNT>
8

>  <PUBCHEM_PHARMACOPHORE_FEATURES>
7
1 3 acceptor
1 4 acceptor
1 5 acceptor
1 5 donor
1 6 acceptor
1 6 donor
6 7 8 9 10 11 12 rings

>  <PUBCHEM_HEAVY_ATOM_COUNT>
18

>  <PUBCHEM_ATOM_DEF_STEREO_COUNT>
0

>  <PUBCHEM_ATOM_UDEF_STEREO_COUNT>
0

>  <PUBCHEM_BOND_DEF_STEREO_COUNT>
0

>  <PUBCHEM_BOND_UDEF_STEREO_COUNT>
0

>  <PUBCHEM_ISOTOPIC_ATOM_COUNT>
0

>  <PUBCHEM_COMPONENT_COUNT>
1

>  <PUBCHEM_CACTVS_TAUTO_COUNT>
1

>  <PUBCHEM_CONFORMER_ID>
000035AB00000001

>  <PUBCHEM_MMFF94_ENERGY>
44.2295

>  <PUBCHEM_FEATURE_SELFOVERLAP>
35.523

>  <PUBCHEM_SHAPE_FINGERPRINT>
10968037 39 18410012152543713039
11089746 13 12540695946557521839
11806522 49 18410009918986535353
12236239 1 18410855447243259972
13533116 47 16660916683113605170
13862211 1 18410006628598832378
14251718 22 18411136939420945249
14251732 16 18410855494493175089
14528608 73 18409733958879929100
14787075 74 18409729560226607264
15196674 1 18338516313804112001
17834072 33 18412824698380719020
19489759 90 14418129604479230181
200 152 18412260623910614371
20645477 70 18199752449496498934
21267235 1 18412550889973548114
221490 88 18263928916185329587
23272321 79 18409451383816681488
23402539 116 18335415751807977061
23402655 69 18339074883518801269
23559900 14 18262797501097503721
34797466 226 17203614826284060588
350125 39 18411983563781164433
3545911 37 18410577275887755602
4325135 7 18410855468718096782
4340502 62 16732706042963078794
4463277 17 18412265021635592889
474 4 17676779746965951636
474229 33 18411136935353240571
5104073 3 18266741281369621474
7062679 117 18341894121495265503

>  <PUBCHEM_SHAPE_MULTIPOLES>
335.22
13.61
1.83
0.69
0
0
-0.08
0
-1.87
0
-0.09
0
0
-0.86

>  <PUBCHEM_SHAPE_SELFOVERLAP>
687.263

>  <PUBCHEM_SHAPE_VOLUME>
192.6

>  <PUBCHEM_COORDINATE_TYPE>
2
5
10

$$$$
13739
 OpenBabel11092011363D

 32 32  0  0  0  0  0  0  0  0999 V2000
    2.6843   -2.2870    0.7769 O   0  0  0  0  0  0  0  0  0  0  0  0
   -2.6184    2.4500    0.1343 O   0  0  0  0  0  0  0  0  0  0  0  0
    3.6183   -0.5333   -0.3854 O   0  0  0  0  0  0  0  0  0  0  0  0
   -3.6715    0.4029    0.1307 O   0  0  0  0  0  0  0  0  0  0  0  0
    5.8053   -2.1506    2.6505 O   0  0  0  0  0  0  0  0  0  0  0  0
   -3.9229    3.0520   -2.2550 O   0  0  0  0  0  0  0  0  0  0  0  0
    1.2904   -0.5293    0.1305 C   0  0  0  0  0  0  0  0  0  0  0  0
   -1.2905    0.5298    0.1314 C   0  0  0  0  0  0  0  0  0  0  0  0
    0.1866   -1.3821    0.1311 C   0  0  0  0  0  0  0  0  0  0  0  0
   -1.1039   -0.8526    0.1315 C   0  0  0  0  0  0  0  0  0  0  0  0
    1.1037    0.8530    0.1304 C   0  0  0  0  0  0  0  0  0  0  0  0
   -0.1867    1.3826    0.1310 C   0  0  0  0  0  0  0  0  0  0  0  0
    2.6356   -1.0816    0.1313 C   0  0  0  0  0  0  0  0  0  0  0  0
   -2.6356    1.0817    0.1316 C   0  0  0  0  0  0  0  0  0  0  0  0
    3.5346   -2.3720    1.9255 C   0  0  0  0  0  0  0  0  0  0  0  0
   -3.8871    3.1133    0.1379 C   0  0  0  0  0  0  0  0  0  0  0  0
    4.9579   -2.0501    1.5125 C   0  0  0  0  0  0  0  0  0  0  0  0
   -4.6662    2.6979   -1.0951 C   0  0  0  0  0  0  0  0  0  0  0  0
    0.3104   -2.4619    0.1314 H   0  0  0  0  0  0  0  0  0  0  0  0
   -1.9332   -1.5543    0.1317 H   0  0  0  0  0  0  0  0  0  0  0  0
    1.9330    1.5547    0.1300 H   0  0  0  0  0  0  0  0  0  0  0  0
   -0.3105    2.4624    0.1308 H   0  0  0  0  0  0  0  0  0  0  0  0
    3.1955   -1.6584    2.6843 H   0  0  0  0  0  0  0  0  0  0  0  0
    3.4796   -3.3909    2.3256 H   0  0  0  0  0  0  0  0  0  0  0  0
   -4.4415    2.8392    1.0420 H   0  0  0  0  0  0  0  0  0  0  0  0
   -3.7134    4.1953    0.1224 H   0  0  0  0  0  0  0  0  0  0  0  0
    5.0367   -1.0408    1.0988 H   0  0  0  0  0  0  0  0  0  0  0  0
    5.3194   -2.7695    0.7719 H   0  0  0  0  0  0  0  0  0  0  0  0
   -5.6351    3.2030   -1.1356 H   0  0  0  0  0  0  0  0  0  0  0  0
   -4.8256    1.6154   -1.1171 H   0  0  0  0  0  0  0  0  0  0  0  0
    5.4979   -1.4988    3.3035 H   0  0  0  0  0  0  0  0  0  0  0  0
   -3.0606    2.6062   -2.1962 H   0  0  0  0  0  0  0  0  0  0  0  0
  1 13  1  0  0  0  0
  1 15  1  0  0  0  0
  2 14  1  0  0  0  0
  2 16  1  0  0  0  0
  3 13  2  0  0  0  0
  4 14  2  0  0  0  0
  5 17  1  0  0  0  0
  5 31  1  0  0  0  0
  6 18  1  0  0  0  0
  6 32  1  0  0  0  0
  7  9  2  0  0  0  0
  7 11  1  0  0  0  0
  7 13  1  0  0  0  0
  8 10  2  0  0  0  0
  8 12  1  0  0  0  0
  8 14  1  0  0  0  0
  9 10  1  0  0  0  0
  9 19  1  0  0  0  0
 10 20  1  0  0  0  0
 11 12  2  0  0  0  0
 11 21  1  0  0  0  0
 12 22  1  0  0  0  0
 15 17  1  0  0  0  0
 15 23  1  0  0  0  0
 15 24  1  0  0  0  0
 16 18  1  0  0  0  0
 16 25  1  0  0  0  0
 16 26  1  0  0  0  0
 17 27  1  0  0  0  0
 17 28  1  0  0  0  0
 18 29  1  0  0  0  0
 18 30  1  0  0  0  0
M  END
>  <PUBCHEM_COMPOUND_CID>
13739

>  <PUBCHEM_CONFORMER_RMSD>
0.8

>  <PUBCHEM_CONFORMER_DIVERSEORDER>
1
57
49
30
42
33
44
14
53
22
19
10
12
45
3
41
11
32
40
15
36
55
29
9
38
4
58
17
37
43
52
24
51
35
20
56
31
39
16
2
21
23
28
34
26
18
25
5
46
47
6
48
8
13
50
7
27
54

>  <PUBCHEM_MMFF94_PARTIAL_CHARGES>
24
1 -0.43
10 -0.15
11 -0.15
12 -0.15
13 0.63
14 0.63
15 0.28
16 0.28
17 0.28
18 0.28
19 0.15
2 -0.43
20 0.15
21 0.15
22 0.15
3 -0.57
31 0.4
32 0.4
4 -0.57
5 -0.68
6 -0.68
7 0.09
8 0.09
9 -0.15

>  <PUBCHEM_EFFECTIVE_ROTOR_COUNT>
8

>  <PUBCHEM_PHARMACOPHORE_FEATURES>
7
1 3 acceptor
1 4 acceptor
1 5 acceptor
1 5 donor
1 6 acceptor
1 6 donor
6 7 8 9 10 11 12 rings

>  <PUBCHEM_HEAVY_ATOM_COUNT>
18

>  <PUBCHEM_ATOM_DEF_STEREO_COUNT>
0

>  <PUBCHEM_ATOM_UDEF_STEREO_COUNT>
0

>  <PUBCHEM_BOND_DEF_STEREO_COUNT>
0

>  <PUBCHEM_BOND_UDEF_STEREO_COUNT>
0

>  <PUBCHEM_ISOTOPIC_ATOM_COUNT>
0

>  <PUBCHEM_COMPONENT_COUNT>
1

>  <PUBCHEM_CACTVS_TAUTO_COUNT>
1

>  <PUBCHEM_CONFORMER_ID>
000035AB00000001

>  <PUBCHEM_MMFF94_ENERGY>
44.2295

>  <PUBCHEM_FEATURE_SELFOVERLAP>
35.523

>  <PUBCHEM_SHAPE_FINGERPRINT>
10968037 39 18410012152543713039
11089746 13 12540695946557521839
11806522 49 18410009918986535353
12236239 1 18410855447243259972
13533116 47 16660916683113605170
13862211 1 18410006628598832378
14251718 22 18411136939420945249
14251732 16 18410855494493175089
14528608 73 18409733958879929100
14787075 74 18409729560226607264
15196674 1 18338516313804112001
17834072 33 18412824698380719020
19489759 90 14418129604479230181
200 152 18412260623910614371
20645477 70 18199752449496498934
21267235 1 18412550889973548114
221490 88 18263928916185329587
23272321 79 18409451383816681488
23402539 116 18335415751807977061
23402655 69 18339074883518801269
23559900 14 18262797501097503721
34797466 226 17203614826284060588
350125 39 18411983563781164433
3545911 37 18410577275887755602
4325135 7 18410855468718096782
4340502 62 16732706042963078794
4463277 17 18412265021635592889
474 4 17676779746965951636
474229 33 18411136935353240571
5104073 3 18266741281369621474
7062679 117 18341894121495265503

>  <PUBCHEM_SHAPE_MULTIPOLES>
335.22
13.61
1.83
0.69
0
0
-0.08
0
-1.87
0
-0.09
0
0
-0.86

>  <PUBCHEM_SHAPE_SELFOVERLAP>
687.263

>  <PUBCHEM_SHAPE_VOLUME>
192.6

>  <PUBCHEM_COORDINATE_TYPE>
2
5
10

$$$$
13739
 OpenBabel11092011363D

 32 32  0  0  0  0  0  0  0  0999 V2000
    3.5844   -0.0957    0.1288 O   0  0  0  0  0  0  0  0  0  0  0  0
   -2.6184    2.4500    0.1343 O   0  0  0  0  0  0  0  0  0  0  0  0
    2.8958   -2.2922    0.1329 O   0  0  0  0  0  0  0  0  0  0  0  0
   -3.6715    0.4029    0.1307 O   0  0  0  0  0  0  0  0  0  0  0  0
    2.8391   -1.0239    2.6652 O   0  0  0  0  0  0  0  0  0  0  0  0
   -1.1324    3.1120    2.3985 O   0  0  0  0  0  0  0  0  0  0  0  0
    1.2904   -0.5293    0.1305 C   0  0  0  0  0  0  0  0  0  0  0  0
   -1.2905    0.5298    0.1314 C   0  0  0  0  0  0  0  0  0  0  0  0
    0.1866   -1.3821    0.1311 C   0  0  0  0  0  0  0  0  0  0  0  0
   -1.1039   -0.8526    0.1315 C   0  0  0  0  0  0  0  0  0  0  0  0
    1.1037    0.8530    0.1304 C   0  0  0  0  0  0  0  0  0  0  0  0
   -0.1867    1.3826    0.1310 C   0  0  0  0  0  0  0  0  0  0  0  0
    2.6356   -1.0816    0.1313 C   0  0  0  0  0  0  0  0  0  0  0  0
   -2.6356    1.0817    0.1316 C   0  0  0  0  0  0  0  0  0  0  0  0
    4.5030   -0.0788    1.2267 C   0  0  0  0  0  0  0  0  0  0  0  0
   -3.2331    3.1029    1.2504 C   0  0  0  0  0  0  0  0  0  0  0  0
    3.7261    0.0785    2.5196 C   0  0  0  0  0  0  0  0  0  0  0  0
   -2.1953    3.9500    1.9611 C   0  0  0  0  0  0  0  0  0  0  0  0
    0.3104   -2.4619    0.1314 H   0  0  0  0  0  0  0  0  0  0  0  0
   -1.9332   -1.5543    0.1317 H   0  0  0  0  0  0  0  0  0  0  0  0
    1.9330    1.5547    0.1300 H   0  0  0  0  0  0  0  0  0  0  0  0
   -0.3105    2.4624    0.1308 H   0  0  0  0  0  0  0  0  0  0  0  0
    5.0694   -1.0162    1.2431 H   0  0  0  0  0  0  0  0  0  0  0  0
    5.1892    0.7655    1.0943 H   0  0  0  0  0  0  0  0  0  0  0  0
   -4.0556    3.7345    0.8980 H   0  0  0  0  0  0  0  0  0  0  0  0
   -3.6190    2.3363    1.9319 H   0  0  0  0  0  0  0  0  0  0  0  0
    3.1454    1.0053    2.5280 H   0  0  0  0  0  0  0  0  0  0  0  0
    4.4003    0.0710    3.3811 H   0  0  0  0  0  0  0  0  0  0  0  0
   -2.6263    4.4485    2.8336 H   0  0  0  0  0  0  0  0  0  0  0  0
   -1.7726    4.7044    1.2903 H   0  0  0  0  0  0  0  0  0  0  0  0
    2.2263   -1.0089    1.9103 H   0  0  0  0  0  0  0  0  0  0  0  0
   -0.7701    2.6668    1.6135 H   0  0  0  0  0  0  0  0  0  0  0  0
  1 13  1  0  0  0  0
  1 15  1  0  0  0  0
  2 14  1  0  0  0  0
  2 16  1  0  0  0  0
  3 13  2  0  0  0  0
  4 14  2  0  0  0  0
  5 17  1  0  0  0  0
  5 31  1  0  0  0  0
  6 18  1  0  0  0  0
  6 32  1  0  0  0  0
  7  9  2  0  0  0  0
  7 11  1  0  0  0  0
  7 13  1  0  0  0  0
  8 10  2  0  0  0  0
  8 12  1  0  0  0  0
  8 14  1  0  0  0  0
  9 10  1  0  0  0  0
  9 19  1  0  0  0  0
 10 20  1  0  0  0  0
 11 12  2  0  0  0  0
 11 21  1  0  0  0  0
 12 22  1  0  0  0  0
 15 17  1  0  0  0  0
 15 23  1  0  0  0  0
 15 24  1  0  0  0  0
 16 18  1  0  0  0  0
 16 25  1  0  0  0  0
 16 26  1  0  0  0  0
 17 27  1  0  0  0  0
 17 28  1  0  0  0  0
 18 29  1  0  0  0  0
 18 30  1  0  0  0  0
M  END
>  <PUBCHEM_COMPOUND_CID>
13739

>  <PUBCHEM_CONFORMER_RMSD>
0.8

>  <PUBCHEM_CONFORMER_DIVERSEORDER>
1
57
49
30
42
33
44
14
53
22
19
10
12
45
3
41
11
32
40
15
36
55
29
9
38
4
58
17
37
43
52
24
51
35
20
56
31
39
16
2
21
23
28
34
26
18
25
5
46
47
6
48
8
13
50
7
27
54

>  <PUBCHEM_MMFF94_PARTIAL_CHARGES>
24
1 -0.43
10 -0.15
11 -0.15
12 -0.15
13 0.63
14 0.63
15 0.28
16 0.28
17 0.28
18 0.28
19 0.15
2 -0.43
20 0.15
21 0.15
22 0.15
3 -0.57
31 0.4
32 0.4
4 -0.57
5 -0.68
6 -0.68
7 0.09
8 0.09
9 -0.15

>  <PUBCHEM_EFFECTIVE_ROTOR_COUNT>
8

>  <PUBCHEM_PHARMACOPHORE_FEATURES>
7
1 3 acceptor
1 4 acceptor
1 5 acceptor
1 5 donor
1 6 acceptor
1 6 donor
6 7 8 9 10 11 12 rings

>  <PUBCHEM_HEAVY_ATOM_COUNT>
18

>  <PUBCHEM_ATOM_DEF_STEREO_COUNT>
0

>  <PUBCHEM_ATOM_UDEF_STEREO_COUNT>
0

>  <PUBCHEM_BOND_DEF_STEREO_COUNT>
0

>  <PUBCHEM_BOND_UDEF_STEREO_COUNT>
0

>  <PUBCHEM_ISOTOPIC_ATOM_COUNT>
0

>  <PUBCHEM_COMPONENT_COUNT>
1

>  <PUBCHEM_CACTVS_TAUTO_COUNT>
1

>  <PUBCHEM_CONFORMER_ID>
000035AB00000001

>  <PUBCHEM_MMFF94_ENERGY>
44.2295

>  <PUBCHEM_FEATURE_SELFOVERLAP>
35.523

>  <PUBCHEM_SHAPE_FINGERPRINT>
10968037 39 18410012152543713039
11089746 13 12540695946557521839
11806522 49 18410009918986535353
12236239 1 18410855447243259972
13533116 47 16660916683113605170
13862211 1 18410006628598832378
14251718 22 18411136939420945249
14251732 16 18410855494493175089
14528608 73 18409733958879929100
14787075 74 18409729560226607264
15196674 1 18338516313804112001
17834072 33 18412824698380719020
19489759 90 14418129604479230181
200 152 18412260623910614371
20645477 70 18199752449496498934
21267235 1 18412550889973548114
221490 88 18263928916185329587
23272321 79 18409451383816681488
23402539 116 18335415751807977061
23402655 69 18339074883518801269
23559900 14 18262797501097503721
34797466 226 17203614826284060588
350125 39 18411983563781164433
3545911 37 18410577275887755602
4325135 7 18410855468718096782
4340502 62 16732706042963078794
4463277 17 18412265021635592889
474 4 17676779746965951636
474229 33 18411136935353240571
5104073 3 18266741281369621474
7062679 117 18341894121495265503

>  <PUBCHEM_SHAPE_MULTIPOLES>
335.22
13.61
1.83
0.69
0
0
-0.08
0
-1.87
0
-0.09
0
0
-0.86

>  <PUBCHEM_SHAPE_SELFOVERLAP>
687.263

>  <PUBCHEM_SHAPE_VOLUME>
192.6

>  <PUBCHEM_COORDINATE_TYPE>
2
5
10

$$$$
13739
 OpenBabel11092011363D

 32 32  0  0  0  0  0  0  0  0999 V2000
    3.5844   -0.0957    0.1288 O   0  0  0  0  0  0  0  0  0  0  0  0
   -3.5178    0.2583   -0.5136 O   0  0  0  0  0  0  0  0  0  0  0  0
    2.8958   -2.2922    0.1329 O   0  0  0  0  0  0  0  0  0  0  0  0
   -2.9494    2.1624    0.6485 O   0  0  0  0  0  0  0  0  0  0  0  0
    2.6200   -0.1220   -2.4869 O   0  0  0  0  0  0  0  0  0  0  0  0
   -6.7933    0.3849    1.0754 O   0  0  0  0  0  0  0  0  0  0  0  0
    1.2904   -0.5293    0.1305 C   0  0  0  0  0  0  0  0  0  0  0  0
   -1.2905    0.5298    0.1314 C   0  0  0  0  0  0  0  0  0  0  0  0
    0.1866   -1.3821    0.1311 C   0  0  0  0  0  0  0  0  0  0  0  0
   -1.1039   -0.8526    0.1315 C   0  0  0  0  0  0  0  0  0  0  0  0
    1.1037    0.8530    0.1304 C   0  0  0  0  0  0  0  0  0  0  0  0
   -0.1867    1.3826    0.1310 C   0  0  0  0  0  0  0  0  0  0  0  0
    2.6356   -1.0816    0.1313 C   0  0  0  0  0  0  0  0  0  0  0  0
   -2.6356    1.0817    0.1316 C   0  0  0  0  0  0  0  0  0  0  0  0
    4.4833   -0.0655   -0.9850 C   0  0  0  0  0  0  0  0  0  0  0  0
   -4.6304   -0.2225    0.2483 C   0  0  0  0  0  0  0  0  0  0  0  0
    3.7959    0.6072   -2.1576 C   0  0  0  0  0  0  0  0  0  0  0  0
   -5.6947    0.8564    0.3047 C   0  0  0  0  0  0  0  0  0  0  0  0
    0.3104   -2.4619    0.1314 H   0  0  0  0  0  0  0  0  0  0  0  0
   -1.9332   -1.5543    0.1317 H   0  0  0  0  0  0  0  0  0  0  0  0
    1.9330    1.5547    0.1300 H   0  0  0  0  0  0  0  0  0  0  0  0
   -0.3105    2.4624    0.1308 H   0  0  0  0  0  0  0  0  0  0  0  0
    5.3854    0.4921   -0.7109 H   0  0  0  0  0  0  0  0  0  0  0  0
    4.7506   -1.0960   -1.2455 H   0  0  0  0  0  0  0  0  0  0  0  0
   -5.0352   -1.1244   -0.2233 H   0  0  0  0  0  0  0  0  0  0  0  0
   -4.2828   -0.4567    1.2609 H   0  0  0  0  0  0  0  0  0  0  0  0
    4.4473    0.6465   -3.0352 H   0  0  0  0  0  0  0  0  0  0  0  0
    3.4871    1.6235   -1.8957 H   0  0  0  0  0  0  0  0  0  0  0  0
   -6.0545    1.1053   -0.6974 H   0  0  0  0  0  0  0  0  0  0  0  0
   -5.3142    1.7638    0.7840 H   0  0  0  0  0  0  0  0  0  0  0  0
    2.8932   -1.0208   -2.7384 H   0  0  0  0  0  0  0  0  0  0  0  0
   -6.4538    0.1556    1.9574 H   0  0  0  0  0  0  0  0  0  0  0  0
  1 13  1  0  0  0  0
  1 15  1  0  0  0  0
  2 14  1  0  0  0  0
  2 16  1  0  0  0  0
  3 13  2  0  0  0  0
  4 14  2  0  0  0  0
  5 17  1  0  0  0  0
  5 31  1  0  0  0  0
  6 18  1  0  0  0  0
  6 32  1  0  0  0  0
  7  9  2  0  0  0  0
  7 11  1  0  0  0  0
  7 13  1  0  0  0  0
  8 10  2  0  0  0  0
  8 12  1  0  0  0  0
  8 14  1  0  0  0  0
  9 10  1  0  0  0  0
  9 19  1  0  0  0  0
 10 20  1  0  0  0  0
 11 12  2  0  0  0  0
 11 21  1  0  0  0  0
 12 22  1  0  0  0  0
 15 17  1  0  0  0  0
 15 23  1  0  0  0  0
 15 24  1  0  0  0  0
 16 18  1  0  0  0  0
 16 25  1  0  0  0  0
 16 26  1  0  0  0  0
 17 27  1  0  0  0  0
 17 28  1  0  0  0  0
 18 29  1  0  0  0  0
 18 30  1  0  0  0  0
M  END
>  <PUBCHEM_COMPOUND_CID>
13739

>  <PUBCHEM_CONFORMER_RMSD>
0.8

>  <PUBCHEM_CONFORMER_DIVERSEORDER>
1
57
49
30
42
33
44
14
53
22
19
10
12
45
3
41
11
32
40
15
36
55
29
9
38
4
58
17
37
43
52
24
51
35
20
56
31
39
16
2
21
23
28
34
26
18
25
5
46
47
6
48
8
13
50
7
27
54

>  <PUBCHEM_MMFF94_PARTIAL_CHARGES>
24
1 -0.43
10 -0.15
11 -0.15
12 -0.15
13 0.63
14 0.63
15 0.28
16 0.28
17 0.28
18 0.28
19 0.15
2 -0.43
20 0.15
21 0.15
22 0.15
3 -0.57
31 0.4
32 0.4
4 -0.57
5 -0.68
6 -0.68
7 0.09
8 0.09
9 -0.15

>  <PUBCHEM_EFFECTIVE_ROTOR_COUNT>
8

>  <PUBCHEM_PHARMACOPHORE_FEATURES>
7
1 3 acceptor
1 4 acceptor
1 5 acceptor
1 5 donor
1 6 acceptor
1 6 donor
6 7 8 9 10 11 12 rings

>  <PUBCHEM_HEAVY_ATOM_COUNT>
18

>  <PUBCHEM_ATOM_DEF_STEREO_COUNT>
0

>  <PUBCHEM_ATOM_UDEF_STEREO_COUNT>
0

>  <PUBCHEM_BOND_DEF_STEREO_COUNT>
0

>  <PUBCHEM_BOND_UDEF_STEREO_COUNT>
0

>  <PUBCHEM_ISOTOPIC_ATOM_COUNT>
0

>  <PUBCHEM_COMPONENT_COUNT>
1

>  <PUBCHEM_CACTVS_TAUTO_COUNT>
1

>  <PUBCHEM_CONFORMER_ID>
000035AB00000001

>  <PUBCHEM_MMFF94_ENERGY>
44.2295

>  <PUBCHEM_FEATURE_SELFOVERLAP>
35.523

>  <PUBCHEM_SHAPE_FINGERPRINT>
10968037 39 18410012152543713039
11089746 13 12540695946557521839
11806522 49 18410009918986535353
12236239 1 18410855447243259972
13533116 47 16660916683113605170
13862211 1 18410006628598832378
14251718 22 18411136939420945249
14251732 16 18410855494493175089
14528608 73 18409733958879929100
14787075 74 18409729560226607264
15196674 1 18338516313804112001
17834072 33 18412824698380719020
19489759 90 14418129604479230181
200 152 18412260623910614371
20645477 70 18199752449496498934
21267235 1 18412550889973548114
221490 88 18263928916185329587
23272321 79 18409451383816681488
23402539 116 18335415751807977061
23402655 69 18339074883518801269
23559900 14 18262797501097503721
34797466 226 17203614826284060588
350125 39 18411983563781164433
3545911 37 18410577275887755602
4325135 7 18410855468718096782
4340502 62 16732706042963078794
4463277 17 18412265021635592889
474 4 17676779746965951636
474229 33 18411136935353240571
5104073 3 18266741281369621474
7062679 117 18341894121495265503

>  <PUBCHEM_SHAPE_MULTIPOLES>
335.22
13.61
1.83
0.69
0
0
-0.08
0
-1.87
0
-0.09
0
0
-0.86

>  <PUBCHEM_SHAPE_SELFOVERLAP>
687.263

>  <PUBCHEM_SHAPE_VOLUME>
192.6

>  <PUBCHEM_COORDINATE_TYPE>
2
5
10

$$$$
13739
 OpenBabel11092011363D

 32 32  0  0  0  0  0  0  0  0999 V2000
    3.5844   -0.0957    0.1288 O   0  0  0  0  0  0  0  0  0  0  0  0
   -2.6812    2.2971   -0.4954 O   0  0  0  0  0  0  0  0  0  0  0  0
    2.8958   -2.2922    0.1329 O   0  0  0  0  0  0  0  0  0  0  0  0
   -3.6208    0.5262    0.6360 O   0  0  0  0  0  0  0  0  0  0  0  0
    6.9361   -1.4923   -0.1630 O   0  0  0  0  0  0  0  0  0  0  0  0
   -0.8415    3.8469    0.9414 O   0  0  0  0  0  0  0  0  0  0  0  0
    1.2904   -0.5293    0.1305 C   0  0  0  0  0  0  0  0  0  0  0  0
   -1.2905    0.5298    0.1314 C   0  0  0  0  0  0  0  0  0  0  0  0
    0.1866   -1.3821    0.1311 C   0  0  0  0  0  0  0  0  0  0  0  0
   -1.1039   -0.8526    0.1315 C   0  0  0  0  0  0  0  0  0  0  0  0
    1.1037    0.8530    0.1304 C   0  0  0  0  0  0  0  0  0  0  0  0
   -0.1867    1.3826    0.1310 C   0  0  0  0  0  0  0  0  0  0  0  0
    2.6356   -1.0816    0.1313 C   0  0  0  0  0  0  0  0  0  0  0  0
   -2.6356    1.0817    0.1316 C   0  0  0  0  0  0  0  0  0  0  0  0
    4.8327   -0.4006   -0.5021 C   0  0  0  0  0  0  0  0  0  0  0  0
   -3.1048    3.4158    0.2912 C   0  0  0  0  0  0  0  0  0  0  0  0
    5.6894   -1.2034    0.4579 C   0  0  0  0  0  0  0  0  0  0  0  0
   -2.1454    3.5964    1.4517 C   0  0  0  0  0  0  0  0  0  0  0  0
    0.3104   -2.4619    0.1314 H   0  0  0  0  0  0  0  0  0  0  0  0
   -1.9332   -1.5543    0.1317 H   0  0  0  0  0  0  0  0  0  0  0  0
    1.9330    1.5547    0.1300 H   0  0  0  0  0  0  0  0  0  0  0  0
   -0.3105    2.4624    0.1308 H   0  0  0  0  0  0  0  0  0  0  0  0
    4.6493   -0.9803   -1.4132 H   0  0  0  0  0  0  0  0  0  0  0  0
    5.3336    0.5404   -0.7573 H   0  0  0  0  0  0  0  0  0  0  0  0
   -3.1158    4.3177   -0.3303 H   0  0  0  0  0  0  0  0  0  0  0  0
   -4.1133    3.2127    0.6691 H   0  0  0  0  0  0  0  0  0  0  0  0
    5.2051   -2.1435    0.7370 H   0  0  0  0  0  0  0  0  0  0  0  0
    5.9015   -0.6277    1.3636 H   0  0  0  0  0  0  0  0  0  0  0  0
   -2.1085    2.6979    2.0736 H   0  0  0  0  0  0  0  0  0  0  0  0
   -2.4316    4.4505    2.0733 H   0  0  0  0  0  0  0  0  0  0  0  0
    6.7520   -2.0203   -0.9586 H   0  0  0  0  0  0  0  0  0  0  0  0
   -0.8951    4.6396    0.3806 H   0  0  0  0  0  0  0  0  0  0  0  0
  1 13  1  0  0  0  0
  1 15  1  0  0  0  0
  2 14  1  0  0  0  0
  2 16  1  0  0  0  0
  3 13  2  0  0  0  0
  4 14  2  0  0  0  0
  5 17  1  0  0  0  0
  5 31  1  0  0  0  0
  6 18  1  0  0  0  0
  6 32  1  0  0  0  0
  7  9  2  0  0  0  0
  7 11  1  0  0  0  0
  7 13  1  0  0  0  0
  8 10  2  0  0  0  0
  8 12  1  0  0  0  0
  8 14  1  0  0  0  0
  9 10  1  0  0  0  0
  9 19  1  0  0  0  0
 10 20  1  0  0  0  0
 11 12  2  0  0  0  0
 11 21  1  0  0  0  0
 12 22  1  0  0  0  0
 15 17  1  0  0  0  0
 15 23  1  0  0  0  0
 15 24  1  0  0  0  0
 16 18  1  0  0  0  0
 16 25  1  0  0  0  0
 16 26  1  0  0  0  0
 17 27  1  0  0  0  0
 17 28  1  0  0  0  0
 18 29  1  0  0  0  0
 18 30  1  0  0  0  0
M  END
>  <PUBCHEM_COMPOUND_CID>
13739

>  <PUBCHEM_CONFORMER_RMSD>
0.8

>  <PUBCHEM_CONFORMER_DIVERSEORDER>
1
57
49
30
42
33
44
14
53
22
19
10
12
45
3
41
11
32
40
15
36
55
29
9
38
4
58
17
37
43
52
24
51
35
20
56
31
39
16
2
21
23
28
34
26
18
25
5
46
47
6
48
8
13
50
7
27
54

>  <PUBCHEM_MMFF94_PARTIAL_CHARGES>
24
1 -0.43
10 -0.15
11 -0.15
12 -0.15
13 0.63
14 0.63
15 0.28
16 0.28
17 0.28
18 0.28
19 0.15
2 -0.43
20 0.15
21 0.15
22 0.15
3 -0.57
31 0.4
32 0.4
4 -0.57
5 -0.68
6 -0.68
7 0.09
8 0.09
9 -0.15

>  <PUBCHEM_EFFECTIVE_ROTOR_COUNT>
8

>  <PUBCHEM_PHARMACOPHORE_FEATURES>
7
1 3 acceptor
1 4 acceptor
1 5 acceptor
1 5 donor
1 6 acceptor
1 6 donor
6 7 8 9 10 11 12 rings

>  <PUBCHEM_HEAVY_ATOM_COUNT>
18

>  <PUBCHEM_ATOM_DEF_STEREO_COUNT>
0

>  <PUBCHEM_ATOM_UDEF_STEREO_COUNT>
0

>  <PUBCHEM_BOND_DEF_STEREO_COUNT>
0

>  <PUBCHEM_BOND_UDEF_STEREO_COUNT>
0

>  <PUBCHEM_ISOTOPIC_ATOM_COUNT>
0

>  <PUBCHEM_COMPONENT_COUNT>
1

>  <PUBCHEM_CACTVS_TAUTO_COUNT>
1

>  <PUBCHEM_CONFORMER_ID>
000035AB00000001

>  <PUBCHEM_MMFF94_ENERGY>
44.2295

>  <PUBCHEM_FEATURE_SELFOVERLAP>
35.523

>  <PUBCHEM_SHAPE_FINGERPRINT>
10968037 39 18410012152543713039
11089746 13 12540695946557521839
11806522 49 18410009918986535353
12236239 1 18410855447243259972
13533116 47 16660916683113605170
13862211 1 18410006628598832378
14251718 22 18411136939420945249
14251732 16 18410855494493175089
14528608 73 18409733958879929100
14787075 74 18409729560226607264
15196674 1 18338516313804112001
17834072 33 18412824698380719020
19489759 90 14418129604479230181
200 152 18412260623910614371
20645477 70 18199752449496498934
21267235 1 18412550889973548114
221490 88 18263928916185329587
23272321 79 18409451383816681488
23402539 116 18335415751807977061
23402655 69 18339074883518801269
23559900 14 18262797501097503721
34797466 226 17203614826284060588
350125 39 18411983563781164433
3545911 37 18410577275887755602
4325135 7 18410855468718096782
4340502 62 16732706042963078794
4463277 17 18412265021635592889
474 4 17676779746965951636
474229 33 18411136935353240571
5104073 3 18266741281369621474
7062679 117 18341894121495265503

>  <PUBCHEM_SHAPE_MULTIPOLES>
335.22
13.61
1.83
0.69
0
0
-0.08
0
-1.87
0
-0.09
0
0
-0.86

>  <PUBCHEM_SHAPE_SELFOVERLAP>
687.263

>  <PUBCHEM_SHAPE_VOLUME>
192.6

>  <PUBCHEM_COORDINATE_TYPE>
2
5
10

$$$$
13739
 OpenBabel11092011363D

 32 32  0  0  0  0  0  0  0  0999 V2000
    3.5844   -0.0957    0.1288 O   0  0  0  0  0  0  0  0  0  0  0  0
   -3.5178    0.2583   -0.5136 O   0  0  0  0  0  0  0  0  0  0  0  0
    2.8958   -2.2922    0.1329 O   0  0  0  0  0  0  0  0  0  0  0  0
   -2.9494    2.1624    0.6485 O   0  0  0  0  0  0  0  0  0  0  0  0
    2.8391   -1.0239    2.6652 O   0  0  0  0  0  0  0  0  0  0  0  0
   -5.6382    2.5477   -2.3931 O   0  0  0  0  0  0  0  0  0  0  0  0
    1.2904   -0.5293    0.1305 C   0  0  0  0  0  0  0  0  0  0  0  0
   -1.2905    0.5298    0.1314 C   0  0  0  0  0  0  0  0  0  0  0  0
    0.1866   -1.3821    0.1311 C   0  0  0  0  0  0  0  0  0  0  0  0
   -1.1039   -0.8526    0.1315 C   0  0  0  0  0  0  0  0  0  0  0  0
    1.1037    0.8530    0.1304 C   0  0  0  0  0  0  0  0  0  0  0  0
   -0.1867    1.3826    0.1310 C   0  0  0  0  0  0  0  0  0  0  0  0
    2.6356   -1.0816    0.1313 C   0  0  0  0  0  0  0  0  0  0  0  0
   -2.6356    1.0817    0.1316 C   0  0  0  0  0  0  0  0  0  0  0  0
    4.5030   -0.0788    1.2267 C   0  0  0  0  0  0  0  0  0  0  0  0
   -4.1808    0.7941   -1.6638 C   0  0  0  0  0  0  0  0  0  0  0  0
    3.7261    0.0785    2.5196 C   0  0  0  0  0  0  0  0  0  0  0  0
   -4.9662    2.0248   -1.2536 C   0  0  0  0  0  0  0  0  0  0  0  0
    0.3104   -2.4619    0.1314 H   0  0  0  0  0  0  0  0  0  0  0  0
   -1.9332   -1.5543    0.1317 H   0  0  0  0  0  0  0  0  0  0  0  0
    1.9330    1.5547    0.1300 H   0  0  0  0  0  0  0  0  0  0  0  0
   -0.3105    2.4624    0.1308 H   0  0  0  0  0  0  0  0  0  0  0  0
    5.0694   -1.0162    1.2431 H   0  0  0  0  0  0  0  0  0  0  0  0
    5.1892    0.7655    1.0943 H   0  0  0  0  0  0  0  0  0  0  0  0
   -3.4386    1.0590   -2.4245 H   0  0  0  0  0  0  0  0  0  0  0  0
   -4.8618    0.0316   -2.0587 H   0  0  0  0  0  0  0  0  0  0  0  0
    3.1454    1.0053    2.5280 H   0  0  0  0  0  0  0  0  0  0  0  0
    4.4003    0.0710    3.3811 H   0  0  0  0  0  0  0  0  0  0  0  0
   -4.3038    2.7983   -0.8555 H   0  0  0  0  0  0  0  0  0  0  0  0
   -5.7228    1.7798   -0.5018 H   0  0  0  0  0  0  0  0  0  0  0  0
    2.2263   -1.0089    1.9103 H   0  0  0  0  0  0  0  0  0  0  0  0
   -6.2115    1.8440   -2.7420 H   0  0  0  0  0  0  0  0  0  0  0  0
  1 13  1  0  0  0  0
  1 15  1  0  0  0  0
  2 14  1  0  0  0  0
  2 16  1  0  0  0  0
  3 13  2  0  0  0  0
  4 14  2  0  0  0  0
  5 17  1  0  0  0  0
  5 31  1  0  0  0  0
  6 18  1  0  0  0  0
  6 32  1  0  0  0  0
  7  9  2  0  0  0  0
  7 11  1  0  0  0  0
  7 13  1  0  0  0  0
  8 10  2  0  0  0  0
  8 12  1  0  0  0  0
  8 14  1  0  0  0  0
  9 10  1  0  0  0  0
  9 19  1  0  0  0  0
 10 20  1  0  0  0  0
 11 12  2  0  0  0  0
 11 21  1  0  0  0  0
 12 22  1  0  0  0  0
 15 17  1  0  0  0  0
 15 23  1  0  0  0  0
 15 24  1  0  0  0  0
 16 18  1  0  0  0  0
 16 25  1  0  0  0  0
 16 26  1  0  0  0  0
 17 27  1  0  0  0  0
 17 28  1  0  0  0  0
 18 29  1  0  0  0  0
 18 30  1  0  0  0  0
M  END
>  <PUBCHEM_COMPOUND_CID>
13739

>  <PUBCHEM_CONFORMER_RMSD>
0.8

>  <PUBCHEM_CONFORMER_DIVERSEORDER>
1
57
49
30
42
33
44
14
53
22
19
10
12
45
3
41
11
32
40
15
36
55
29
9
38
4
58
17
37
43
52
24
51
35
20
56
31
39
16
2
21
23
28
34
26
18
25
5
46
47
6
48
8
13
50
7
27
54

>  <PUBCHEM_MMFF94_PARTIAL_CHARGES>
24
1 -0.43
10 -0.15
11 -0.15
12 -0.15
13 0.63
14 0.63
15 0.28
16 0.28
17 0.28
18 0.28
19 0.15
2 -0.43
20 0.15
21 0.15
22 0.15
3 -0.57
31 0.4
32 0.4
4 -0.57
5 -0.68
6 -0.68
7 0.09
8 0.09
9 -0.15

>  <PUBCHEM_EFFECTIVE_ROTOR_COUNT>
8

>  <PUBCHEM_PHARMACOPHORE_FEATURES>
7
1 3 acceptor
1 4 acceptor
1 5 acceptor
1 5 donor
1 6 acceptor
1 6 donor
6 7 8 9 10 11 12 rings

>  <PUBCHEM_HEAVY_ATOM_COUNT>
18

>  <PUBCHEM_ATOM_DEF_STEREO_COUNT>
0

>  <PUBCHEM_ATOM_UDEF_STEREO_COUNT>
0

>  <PUBCHEM_BOND_DEF_STEREO_COUNT>
0

>  <PUBCHEM_BOND_UDEF_STEREO_COUNT>
0

>  <PUBCHEM_ISOTOPIC_ATOM_COUNT>
0

>  <PUBCHEM_COMPONENT_COUNT>
1

>  <PUBCHEM_CACTVS_TAUTO_COUNT>
1

>  <PUBCHEM_CONFORMER_ID>
000035AB00000001

>  <PUBCHEM_MMFF94_ENERGY>
44.2295

>  <PUBCHEM_FEATURE_SELFOVERLAP>
35.523

>  <PUBCHEM_SHAPE_FINGERPRINT>
10968037 39 18410012152543713039
11089746 13 12540695946557521839
11806522 49 18410009918986535353
12236239 1 18410855447243259972
13533116 47 16660916683113605170
13862211 1 18410006628598832378
14251718 22 18411136939420945249
14251732 16 18410855494493175089
14528608 73 18409733958879929100
14787075 74 18409729560226607264
15196674 1 18338516313804112001
17834072 33 18412824698380719020
19489759 90 14418129604479230181
200 152 18412260623910614371
20645477 70 18199752449496498934
21267235 1 18412550889973548114
221490 88 18263928916185329587
23272321 79 18409451383816681488
23402539 116 18335415751807977061
23402655 69 18339074883518801269
23559900 14 18262797501097503721
34797466 226 17203614826284060588
350125 39 18411983563781164433
3545911 37 18410577275887755602
4325135 7 18410855468718096782
4340502 62 16732706042963078794
4463277 17 18412265021635592889
474 4 17676779746965951636
474229 33 18411136935353240571
5104073 3 18266741281369621474
7062679 117 18341894121495265503

>  <PUBCHEM_SHAPE_MULTIPOLES>
335.22
13.61
1.83
0.69
0
0
-0.08
0
-1.87
0
-0.09
0
0
-0.86

>  <PUBCHEM_SHAPE_SELFOVERLAP>
687.263

>  <PUBCHEM_SHAPE_VOLUME>
192.6

>  <PUBCHEM_COORDINATE_TYPE>
2
5
10

$$$$
13739
 OpenBabel11092011363D

 32 32  0  0  0  0  0  0  0  0999 V2000
    3.5213   -0.2484    0.7586 O   0  0  0  0  0  0  0  0  0  0  0  0
   -2.6812    2.2971   -0.4954 O   0  0  0  0  0  0  0  0  0  0  0  0
    2.9466   -2.1692   -0.3723 O   0  0  0  0  0  0  0  0  0  0  0  0
   -3.6208    0.5262    0.6360 O   0  0  0  0  0  0  0  0  0  0  0  0
    2.1436   -1.4833    2.8627 O   0  0  0  0  0  0  0  0  0  0  0  0
   -5.8365    2.2245   -2.3145 O   0  0  0  0  0  0  0  0  0  0  0  0
    1.2904   -0.5293    0.1305 C   0  0  0  0  0  0  0  0  0  0  0  0
   -1.2905    0.5298    0.1314 C   0  0  0  0  0  0  0  0  0  0  0  0
    0.1866   -1.3821    0.1311 C   0  0  0  0  0  0  0  0  0  0  0  0
   -1.1039   -0.8526    0.1315 C   0  0  0  0  0  0  0  0  0  0  0  0
    1.1037    0.8530    0.1304 C   0  0  0  0  0  0  0  0  0  0  0  0
   -0.1867    1.3826    0.1310 C   0  0  0  0  0  0  0  0  0  0  0  0
    2.6356   -1.0816    0.1313 C   0  0  0  0  0  0  0  0  0  0  0  0
   -2.6356    1.0817    0.1316 C   0  0  0  0  0  0  0  0  0  0  0  0
    4.2156   -0.7778    1.8930 C   0  0  0  0  0  0  0  0  0  0  0  0
   -3.5508    2.4095   -1.6271 C   0  0  0  0  0  0  0  0  0  0  0  0
    3.3088   -0.7048    3.1065 C   0  0  0  0  0  0  0  0  0  0  0  0
   -4.9747    2.1290   -1.1869 C   0  0  0  0  0  0  0  0  0  0  0  0
    0.3104   -2.4619    0.1314 H   0  0  0  0  0  0  0  0  0  0  0  0
   -1.9332   -1.5543    0.1317 H   0  0  0  0  0  0  0  0  0  0  0  0
    1.9330    1.5547    0.1300 H   0  0  0  0  0  0  0  0  0  0  0  0
   -0.3105    2.4624    0.1308 H   0  0  0  0  0  0  0  0  0  0  0  0
    4.4943   -1.8189    1.6973 H   0  0  0  0  0  0  0  0  0  0  0  0
    5.1181   -0.1788    2.0605 H   0  0  0  0  0  0  0  0  0  0  0  0
   -3.4795    3.4193   -2.0453 H   0  0  0  0  0  0  0  0  0  0  0  0
   -3.2407    1.6737   -2.3778 H   0  0  0  0  0  0  0  0  0  0  0  0
    3.0097    0.3249    3.3219 H   0  0  0  0  0  0  0  0  0  0  0  0
    3.8038   -1.1250    3.9870 H   0  0  0  0  0  0  0  0  0  0  0  0
   -5.3031    2.8529   -0.4362 H   0  0  0  0  0  0  0  0  0  0  0  0
   -5.0709    1.1190   -0.7765 H   0  0  0  0  0  0  0  0  0  0  0  0
    1.6913   -1.1004    2.0916 H   0  0  0  0  0  0  0  0  0  0  0  0
   -5.5226    1.5850   -2.9765 H   0  0  0  0  0  0  0  0  0  0  0  0
  1 13  1  0  0  0  0
  1 15  1  0  0  0  0
  2 14  1  0  0  0  0
  2 16  1  0  0  0  0
  3 13  2  0  0  0  0
  4 14  2  0  0  0  0
  5 17  1  0  0  0  0
  5 31  1  0  0  0  0
  6 18  1  0  0  0  0
  6 32  1  0  0  0  0
  7  9  2  0  0  0  0
  7 11  1  0  0  0  0
  7 13  1  0  0  0  0
  8 10  2  0  0  0  0
  8 12  1  0  0  0  0
  8 14  1  0  0  0  0
  9 10  1  0  0  0  0
  9 19  1  0  0  0  0
 10 20  1  0  0  0  0
 11 12  2  0  0  0  0
 11 21  1  0  0  0  0
 12 22  1  0  0  0  0
 15 17  1  0  0  0  0
 15 23  1  0  0  0  0
 15 24  1  0  0  0  0
 16 18  1  0  0  0  0
 16 25  1  0  0  0  0
 16 26  1  0  0  0  0
 17 27  1  0  0  0  0
 17 28  1  0  0  0  0
 18 29  1  0  0  0  0
 18 30  1  0  0  0  0
M  END
>  <PUBCHEM_COMPOUND_CID>
13739

>  <PUBCHEM_CONFORMER_RMSD>
0.8

>  <PUBCHEM_CONFORMER_DIVERSEORDER>
1
57
49
30
42
33
44
14
53
22
19
10
12
45
3
41
11
32
40
15
36
55
29
9
38
4
58
17
37
43
52
24
51
35
20
56
31
39
16
2
21
23
28
34
26
18
25
5
46
47
6
48
8
13
50
7
27
54

>  <PUBCHEM_MMFF94_PARTIAL_CHARGES>
24
1 -0.43
10 -0.15
11 -0.15
12 -0.15
13 0.63
14 0.63
15 0.28
16 0.28
17 0.28
18 0.28
19 0.15
2 -0.43
20 0.15
21 0.15
22 0.15
3 -0.57
31 0.4
32 0.4
4 -0.57
5 -0.68
6 -0.68
7 0.09
8 0.09
9 -0.15

>  <PUBCHEM_EFFECTIVE_ROTOR_COUNT>
8

>  <PUBCHEM_PHARMACOPHORE_FEATURES>
7
1 3 acceptor
1 4 acceptor
1 5 acceptor
1 5 donor
1 6 acceptor
1 6 donor
6 7 8 9 10 11 12 rings

>  <PUBCHEM_HEAVY_ATOM_COUNT>
18

>  <PUBCHEM_ATOM_DEF_STEREO_COUNT>
0

>  <PUBCHEM_ATOM_UDEF_STEREO_COUNT>
0

>  <PUBCHEM_BOND_DEF_STEREO_COUNT>
0

>  <PUBCHEM_BOND_UDEF_STEREO_COUNT>
0

>  <PUBCHEM_ISOTOPIC_ATOM_COUNT>
0

>  <PUBCHEM_COMPONENT_COUNT>
1

>  <PUBCHEM_CACTVS_TAUTO_COUNT>
1

>  <PUBCHEM_CONFORMER_ID>
000035AB00000001

>  <PUBCHEM_MMFF94_ENERGY>
44.2295

>  <PUBCHEM_FEATURE_SELFOVERLAP>
35.523

>  <PUBCHEM_SHAPE_FINGERPRINT>
10968037 39 18410012152543713039
11089746 13 12540695946557521839
11806522 49 18410009918986535353
12236239 1 18410855447243259972
13533116 47 16660916683113605170
13862211 1 18410006628598832378
14251718 22 18411136939420945249
14251732 16 18410855494493175089
14528608 73 18409733958879929100
14787075 74 18409729560226607264
15196674 1 18338516313804112001
17834072 33 18412824698380719020
19489759 90 14418129604479230181
200 152 18412260623910614371
20645477 70 18199752449496498934
21267235 1 18412550889973548114
221490 88 18263928916185329587
23272321 79 18409451383816681488
23402539 116 18335415751807977061
23402655 69 18339074883518801269
23559900 14 18262797501097503721
34797466 226 17203614826284060588
350125 39 18411983563781164433
3545911 37 18410577275887755602
4325135 7 18410855468718096782
4340502 62 16732706042963078794
4463277 17 18412265021635592889
474 4 17676779746965951636
474229 33 18411136935353240571
5104073 3 18266741281369621474
7062679 117 18341894121495265503

>  <PUBCHEM_SHAPE_MULTIPOLES>
335.22
13.61
1.83
0.69
0
0
-0.08
0
-1.87
0
-0.09
0
0
-0.86

>  <PUBCHEM_SHAPE_SELFOVERLAP>
687.263

>  <PUBCHEM_SHAPE_VOLUME>
192.6

>  <PUBCHEM_COORDINATE_TYPE>
2
5
10

$$$$
13739
 OpenBabel11092011363D

 32 32  0  0  0  0  0  0  0  0999 V2000
    2.6843   -2.2870    0.7769 O   0  0  0  0  0  0  0  0  0  0  0  0
   -2.6812    2.2971   -0.4954 O   0  0  0  0  0  0  0  0  0  0  0  0
    3.6183   -0.5333   -0.3854 O   0  0  0  0  0  0  0  0  0  0  0  0
   -3.6208    0.5262    0.6360 O   0  0  0  0  0  0  0  0  0  0  0  0
    2.0807   -3.9980    2.9120 O   0  0  0  0  0  0  0  0  0  0  0  0
   -2.1382    2.4103    2.2369 O   0  0  0  0  0  0  0  0  0  0  0  0
    1.2904   -0.5293    0.1305 C   0  0  0  0  0  0  0  0  0  0  0  0
   -1.2905    0.5298    0.1314 C   0  0  0  0  0  0  0  0  0  0  0  0
    0.1866   -1.3821    0.1311 C   0  0  0  0  0  0  0  0  0  0  0  0
   -1.1039   -0.8526    0.1315 C   0  0  0  0  0  0  0  0  0  0  0  0
    1.1037    0.8530    0.1304 C   0  0  0  0  0  0  0  0  0  0  0  0
   -0.1867    1.3826    0.1310 C   0  0  0  0  0  0  0  0  0  0  0  0
    2.6356   -1.0816    0.1313 C   0  0  0  0  0  0  0  0  0  0  0  0
   -2.6356    1.0817    0.1316 C   0  0  0  0  0  0  0  0  0  0  0  0
    3.5346   -2.3720    1.9255 C   0  0  0  0  0  0  0  0  0  0  0  0
   -3.1048    3.4158    0.2912 C   0  0  0  0  0  0  0  0  0  0  0  0
    2.6963   -2.7355    3.1360 C   0  0  0  0  0  0  0  0  0  0  0  0
   -2.1454    3.5964    1.4517 C   0  0  0  0  0  0  0  0  0  0  0  0
    0.3104   -2.4619    0.1314 H   0  0  0  0  0  0  0  0  0  0  0  0
   -1.9332   -1.5543    0.1317 H   0  0  0  0  0  0  0  0  0  0  0  0
    1.9330    1.5547    0.1300 H   0  0  0  0  0  0  0  0  0  0  0  0
   -0.3105    2.4624    0.1308 H   0  0  0  0  0  0  0  0  0  0  0  0
    4.2996   -3.1377    1.7575 H   0  0  0  0  0  0  0  0  0  0  0  0
    4.0137   -1.3980    2.0777 H   0  0  0  0  0  0  0  0  0  0  0  0
   -3.1158    4.3177   -0.3303 H   0  0  0  0  0  0  0  0  0  0  0  0
   -4.1133    3.2127    0.6691 H   0  0  0  0  0  0  0  0  0  0  0  0
    1.9190   -1.9894    3.3239 H   0  0  0  0  0  0  0  0  0  0  0  0
    3.3229   -2.8315    4.0276 H   0  0  0  0  0  0  0  0  0  0  0  0
   -2.4512    4.4320    2.0871 H   0  0  0  0  0  0  0  0  0  0  0  0
   -1.1243    3.7703    1.0984 H   0  0  0  0  0  0  0  0  0  0  0  0
    1.5082   -3.9106    2.1308 H   0  0  0  0  0  0  0  0  0  0  0  0
   -1.8781    1.6764    1.6543 H   0  0  0  0  0  0  0  0  0  0  0  0
  1 13  1  0  0  0  0
  1 15  1  0  0  0  0
  2 14  1  0  0  0  0
  2 16  1  0  0  0  0
  3 13  2  0  0  0  0
  4 14  2  0  0  0  0
  5 17  1  0  0  0  0
  5 31  1  0  0  0  0
  6 18  1  0  0  0  0
  6 32  1  0  0  0  0
  7  9  2  0  0  0  0
  7 11  1  0  0  0  0
  7 13  1  0  0  0  0
  8 10  2  0  0  0  0
  8 12  1  0  0  0  0
  8 14  1  0  0  0  0
  9 10  1  0  0  0  0
  9 19  1  0  0  0  0
 10 20  1  0  0  0  0
 11 12  2  0  0  0  0
 11 21  1  0  0  0  0
 12 22  1  0  0  0  0
 15 17  1  0  0  0  0
 15 23  1  0  0  0  0
 15 24  1  0  0  0  0
 16 18  1  0  0  0  0
 16 25  1  0  0  0  0
 16 26  1  0  0  0  0
 17 27  1  0  0  0  0
 17 28  1  0  0  0  0
 18 29  1  0  0  0  0
 18 30  1  0  0  0  0
M  END
>  <PUBCHEM_COMPOUND_CID>
13739

>  <PUBCHEM_CONFORMER_RMSD>
0.8

>  <PUBCHEM_CONFORMER_DIVERSEORDER>
1
57
49
30
42
33
44
14
53
22
19
10
12
45
3
41
11
32
40
15
36
55
29
9
38
4
58
17
37
43
52
24
51
35
20
56
31
39
16
2
21
23
28
34
26
18
25
5
46
47
6
48
8
13
50
7
27
54

>  <PUBCHEM_MMFF94_PARTIAL_CHARGES>
24
1 -0.43
10 -0.15
11 -0.15
12 -0.15
13 0.63
14 0.63
15 0.28
16 0.28
17 0.28
18 0.28
19 0.15
2 -0.43
20 0.15
21 0.15
22 0.15
3 -0.57
31 0.4
32 0.4
4 -0.57
5 -0.68
6 -0.68
7 0.09
8 0.09
9 -0.15

>  <PUBCHEM_EFFECTIVE_ROTOR_COUNT>
8

>  <PUBCHEM_PHARMACOPHORE_FEATURES>
7
1 3 acceptor
1 4 acceptor
1 5 acceptor
1 5 donor
1 6 acceptor
1 6 donor
6 7 8 9 10 11 12 rings

>  <PUBCHEM_HEAVY_ATOM_COUNT>
18

>  <PUBCHEM_ATOM_DEF_STEREO_COUNT>
0

>  <PUBCHEM_ATOM_UDEF_STEREO_COUNT>
0

>  <PUBCHEM_BOND_DEF_STEREO_COUNT>
0

>  <PUBCHEM_BOND_UDEF_STEREO_COUNT>
0

>  <PUBCHEM_ISOTOPIC_ATOM_COUNT>
0

>  <PUBCHEM_COMPONENT_COUNT>
1

>  <PUBCHEM_CACTVS_TAUTO_COUNT>
1

>  <PUBCHEM_CONFORMER_ID>
000035AB00000001

>  <PUBCHEM_MMFF94_ENERGY>
44.2295

>  <PUBCHEM_FEATURE_SELFOVERLAP>
35.523

>  <PUBCHEM_SHAPE_FINGERPRINT>
10968037 39 18410012152543713039
11089746 13 12540695946557521839
11806522 49 18410009918986535353
12236239 1 18410855447243259972
13533116 47 16660916683113605170
13862211 1 18410006628598832378
14251718 22 18411136939420945249
14251732 16 18410855494493175089
14528608 73 18409733958879929100
14787075 74 18409729560226607264
15196674 1 18338516313804112001
17834072 33 18412824698380719020
19489759 90 14418129604479230181
200 152 18412260623910614371
20645477 70 18199752449496498934
21267235 1 18412550889973548114
221490 88 18263928916185329587
23272321 79 18409451383816681488
23402539 116 18335415751807977061
23402655 69 18339074883518801269
23559900 14 18262797501097503721
34797466 226 17203614826284060588
350125 39 18411983563781164433
3545911 37 18410577275887755602
4325135 7 18410855468718096782
4340502 62 16732706042963078794
4463277 17 18412265021635592889
474 4 17676779746965951636
474229 33 18411136935353240571
5104073 3 18266741281369621474
7062679 117 18341894121495265503

>  <PUBCHEM_SHAPE_MULTIPOLES>
335.22
13.61
1.83
0.69
0
0
-0.08
0
-1.87
0
-0.09
0
0
-0.86

>  <PUBCHEM_SHAPE_SELFOVERLAP>
687.263

>  <PUBCHEM_SHAPE_VOLUME>
192.6

>  <PUBCHEM_COORDINATE_TYPE>
2
5
10

$$$$
13739
 OpenBabel11092011363D

 32 32  0  0  0  0  0  0  0  0999 V2000
    2.6843   -2.2870    0.7769 O   0  0  0  0  0  0  0  0  0  0  0  0
   -3.5178    0.2583   -0.5136 O   0  0  0  0  0  0  0  0  0  0  0  0
    3.6183   -0.5333   -0.3854 O   0  0  0  0  0  0  0  0  0  0  0  0
   -2.9494    2.1624    0.6485 O   0  0  0  0  0  0  0  0  0  0  0  0
    5.3971   -2.9800    0.6698 O   0  0  0  0  0  0  0  0  0  0  0  0
   -3.9002    1.2587   -3.9954 O   0  0  0  0  0  0  0  0  0  0  0  0
    1.2904   -0.5293    0.1305 C   0  0  0  0  0  0  0  0  0  0  0  0
   -1.2905    0.5298    0.1314 C   0  0  0  0  0  0  0  0  0  0  0  0
    0.1866   -1.3821    0.1311 C   0  0  0  0  0  0  0  0  0  0  0  0
   -1.1039   -0.8526    0.1315 C   0  0  0  0  0  0  0  0  0  0  0  0
    1.1037    0.8530    0.1304 C   0  0  0  0  0  0  0  0  0  0  0  0
   -0.1867    1.3826    0.1310 C   0  0  0  0  0  0  0  0  0  0  0  0
    2.6356   -1.0816    0.1313 C   0  0  0  0  0  0  0  0  0  0  0  0
   -2.6356    1.0817    0.1316 C   0  0  0  0  0  0  0  0  0  0  0  0
    3.1353   -3.4116    0.0146 C   0  0  0  0  0  0  0  0  0  0  0  0
   -4.1808    0.7941   -1.6638 C   0  0  0  0  0  0  0  0  0  0  0  0
    4.5516   -3.1512   -0.4611 C   0  0  0  0  0  0  0  0  0  0  0  0
   -3.2475    0.7114   -2.8562 C   0  0  0  0  0  0  0  0  0  0  0  0
    0.3104   -2.4619    0.1314 H   0  0  0  0  0  0  0  0  0  0  0  0
   -1.9332   -1.5543    0.1317 H   0  0  0  0  0  0  0  0  0  0  0  0
    1.9330    1.5547    0.1300 H   0  0  0  0  0  0  0  0  0  0  0  0
   -0.3105    2.4624    0.1308 H   0  0  0  0  0  0  0  0  0  0  0  0
    3.1110   -4.3103    0.6405 H   0  0  0  0  0  0  0  0  0  0  0  0
    2.4671   -3.5413   -0.8445 H   0  0  0  0  0  0  0  0  0  0  0  0
   -5.0932    0.2211   -1.8610 H   0  0  0  0  0  0  0  0  0  0  0  0
   -4.4358    1.8406   -1.4616 H   0  0  0  0  0  0  0  0  0  0  0  0
    4.6064   -2.2544   -1.0848 H   0  0  0  0  0  0  0  0  0  0  0  0
    4.9340   -4.0050   -1.0282 H   0  0  0  0  0  0  0  0  0  0  0  0
   -2.9802   -0.3262   -3.0740 H   0  0  0  0  0  0  0  0  0  0  0  0
   -2.3333    1.2881   -2.6848 H   0  0  0  0  0  0  0  0  0  0  0  0
    5.0707   -2.2098    1.1659 H   0  0  0  0  0  0  0  0  0  0  0  0
   -4.1428    2.1755   -3.7801 H   0  0  0  0  0  0  0  0  0  0  0  0
  1 13  1  0  0  0  0
  1 15  1  0  0  0  0
  2 14  1  0  0  0  0
  2 16  1  0  0  0  0
  3 13  2  0  0  0  0
  4 14  2  0  0  0  0
  5 17  1  0  0  0  0
  5 31  1  0  0  0  0
  6 18  1  0  0  0  0
  6 32  1  0  0  0  0
  7  9  2  0  0  0  0
  7 11  1  0  0  0  0
  7 13  1  0  0  0  0
  8 10  2  0  0  0  0
  8 12  1  0  0  0  0
  8 14  1  0  0  0  0
  9 10  1  0  0  0  0
  9 19  1  0  0  0  0
 10 20  1  0  0  0  0
 11 12  2  0  0  0  0
 11 21  1  0  0  0  0
 12 22  1  0  0  0  0
 15 17  1  0  0  0  0
 15 23  1  0  0  0  0
 15 24  1  0  0  0  0
 16 18  1  0  0  0  0
 16 25  1  0  0  0  0
 16 26  1  0  0  0  0
 17 27  1  0  0  0  0
 17 28  1  0  0  0  0
 18 29  1  0  0  0  0
 18 30  1  0  0  0  0
M  END
>  <PUBCHEM_COMPOUND_CID>
13739

>  <PUBCHEM_CONFORMER_RMSD>
0.8

>  <PUBCHEM_CONFORMER_DIVERSEORDER>
1
57
49
30
42
33
44
14
53
22
19
10
12
45
3
41
11
32
40
15
36
55
29
9
38
4
58
17
37
43
52
24
51
35
20
56
31
39
16
2
21
23
28
34
26
18
25
5
46
47
6
48
8
13
50
7
27
54

>  <PUBCHEM_MMFF94_PARTIAL_CHARGES>
24
1 -0.43
10 -0.15
11 -0.15
12 -0.15
13 0.63
14 0.63
15 0.28
16 0.28
17 0.28
18 0.28
19 0.15
2 -0.43
20 0.15
21 0.15
22 0.15
3 -0.57
31 0.4
32 0.4
4 -0.57
5 -0.68
6 -0.68
7 0.09
8 0.09
9 -0.15

>  <PUBCHEM_EFFECTIVE_ROTOR_COUNT>
8

>  <PUBCHEM_PHARMACOPHORE_FEATURES>
7
1 3 acceptor
1 4 acceptor
1 5 acceptor
1 5 donor
1 6 acceptor
1 6 donor
6 7 8 9 10 11 12 rings

>  <PUBCHEM_HEAVY_ATOM_COUNT>
18

>  <PUBCHEM_ATOM_DEF_STEREO_COUNT>
0

>  <PUBCHEM_ATOM_UDEF_STEREO_COUNT>
0

>  <PUBCHEM_BOND_DEF_STEREO_COUNT>
0

>  <PUBCHEM_BOND_UDEF_STEREO_COUNT>
0

>  <PUBCHEM_ISOTOPIC_ATOM_COUNT>
0

>  <PUBCHEM_COMPONENT_COUNT>
1

>  <PUBCHEM_CACTVS_TAUTO_COUNT>
1

>  <PUBCHEM_CONFORMER_ID>
000035AB00000001

>  <PUBCHEM_MMFF94_ENERGY>
44.2295

>  <PUBCHEM_FEATURE_SELFOVERLAP>
35.523

>  <PUBCHEM_SHAPE_FINGERPRINT>
10968037 39 18410012152543713039
11089746 13 12540695946557521839
11806522 49 18410009918986535353
12236239 1 18410855447243259972
13533116 47 16660916683113605170
13862211 1 18410006628598832378
14251718 22 18411136939420945249
14251732 16 18410855494493175089
14528608 73 18409733958879929100
14787075 74 18409729560226607264
15196674 1 18338516313804112001
17834072 33 18412824698380719020
19489759 90 14418129604479230181
200 152 18412260623910614371
20645477 70 18199752449496498934
21267235 1 18412550889973548114
221490 88 18263928916185329587
23272321 79 18409451383816681488
23402539 116 18335415751807977061
23402655 69 18339074883518801269
23559900 14 18262797501097503721
34797466 226 17203614826284060588
350125 39 18411983563781164433
3545911 37 18410577275887755602
4325135 7 18410855468718096782
4340502 62 16732706042963078794
4463277 17 18412265021635592889
474 4 17676779746965951636
474229 33 18411136935353240571
5104073 3 18266741281369621474
7062679 117 18341894121495265503

>  <PUBCHEM_SHAPE_MULTIPOLES>
335.22
13.61
1.83
0.69
0
0
-0.08
0
-1.87
0
-0.09
0
0
-0.86

>  <PUBCHEM_SHAPE_SELFOVERLAP>
687.263

>  <PUBCHEM_SHAPE_VOLUME>
192.6

>  <PUBCHEM_COORDINATE_TYPE>
2
5
10

$$$$
13739
 OpenBabel11092011363D

 32 32  0  0  0  0  0  0  0  0999 V2000
    2.6843   -2.2870    0.7769 O   0  0  0  0  0  0  0  0  0  0  0  0
   -2.6812    2.2971   -0.4954 O   0  0  0  0  0  0  0  0  0  0  0  0
    3.6183   -0.5333   -0.3854 O   0  0  0  0  0  0  0  0  0  0  0  0
   -3.6208    0.5262    0.6360 O   0  0  0  0  0  0  0  0  0  0  0  0
    5.4847   -4.2992   -0.3971 O   0  0  0  0  0  0  0  0  0  0  0  0
   -2.1003    4.1312    1.5224 O   0  0  0  0  0  0  0  0  0  0  0  0
    1.2904   -0.5293    0.1305 C   0  0  0  0  0  0  0  0  0  0  0  0
   -1.2905    0.5298    0.1314 C   0  0  0  0  0  0  0  0  0  0  0  0
    0.1866   -1.3821    0.1311 C   0  0  0  0  0  0  0  0  0  0  0  0
   -1.1039   -0.8526    0.1315 C   0  0  0  0  0  0  0  0  0  0  0  0
    1.1037    0.8530    0.1304 C   0  0  0  0  0  0  0  0  0  0  0  0
   -0.1867    1.3826    0.1310 C   0  0  0  0  0  0  0  0  0  0  0  0
    2.6356   -1.0816    0.1313 C   0  0  0  0  0  0  0  0  0  0  0  0
   -2.6356    1.0817    0.1316 C   0  0  0  0  0  0  0  0  0  0  0  0
    3.9596   -2.9339    0.8443 C   0  0  0  0  0  0  0  0  0  0  0  0
   -3.6721    3.2242   -0.0390 C   0  0  0  0  0  0  0  0  0  0  0  0
    4.2250   -3.6428   -0.4700 C   0  0  0  0  0  0  0  0  0  0  0  0
   -2.9826    4.4785    0.4621 C   0  0  0  0  0  0  0  0  0  0  0  0
    0.3104   -2.4619    0.1314 H   0  0  0  0  0  0  0  0  0  0  0  0
   -1.9332   -1.5543    0.1317 H   0  0  0  0  0  0  0  0  0  0  0  0
    1.9330    1.5547    0.1300 H   0  0  0  0  0  0  0  0  0  0  0  0
   -0.3105    2.4624    0.1308 H   0  0  0  0  0  0  0  0  0  0  0  0
    4.7387   -2.1866    1.0294 H   0  0  0  0  0  0  0  0  0  0  0  0
    3.9400   -3.6589    1.6661 H   0  0  0  0  0  0  0  0  0  0  0  0
   -4.3494    3.4722   -0.8633 H   0  0  0  0  0  0  0  0  0  0  0  0
   -4.2353    2.7570    0.7768 H   0  0  0  0  0  0  0  0  0  0  0  0
    4.2379   -2.9407   -1.3085 H   0  0  0  0  0  0  0  0  0  0  0  0
    3.4677   -4.4097   -0.6573 H   0  0  0  0  0  0  0  0  0  0  0  0
   -3.7103    5.2025    0.8387 H   0  0  0  0  0  0  0  0  0  0  0  0
   -2.3881    4.9467   -0.3285 H   0  0  0  0  0  0  0  0  0  0  0  0
    6.1624   -3.6175   -0.2494 H   0  0  0  0  0  0  0  0  0  0  0  0
   -1.4696    3.4777    1.1748 H   0  0  0  0  0  0  0  0  0  0  0  0
  1 13  1  0  0  0  0
  1 15  1  0  0  0  0
  2 14  1  0  0  0  0
  2 16  1  0  0  0  0
  3 13  2  0  0  0  0
  4 14  2  0  0  0  0
  5 17  1  0  0  0  0
  5 31  1  0  0  0  0
  6 18  1  0  0  0  0
  6 32  1  0  0  0  0
  7  9  2  0  0  0  0
  7 11  1  0  0  0  0
  7 13  1  0  0  0  0
  8 10  2  0  0  0  0
  8 12  1  0  0  0  0
  8 14  1  0  0  0  0
  9 10  1  0  0  0  0
  9 19  1  0  0  0  0
 10 20  1  0  0  0  0
 11 12  2  0  0  0  0
 11 21  1  0  0  0  0
 12 22  1  0  0  0  0
 15 17  1  0  0  0  0
 15 23  1  0  0  0  0
 15 24  1  0  0  0  0
 16 18  1  0  0  0  0
 16 25  1  0  0  0  0
 16 26  1  0  0  0  0
 17 27  1  0  0  0  0
 17 28  1  0  0  0  0
 18 29  1  0  0  0  0
 18 30  1  0  0  0  0
M  END
>  <PUBCHEM_COMPOUND_CID>
13739

>  <PUBCHEM_CONFORMER_RMSD>
0.8

>  <PUBCHEM_CONFORMER_DIVERSEORDER>
1
57
49
30
42
33
44
14
53
22
19
10
12
45
3
41
11
32
40
15
36
55
29
9
38
4
58
17
37
43
52
24
51
35
20
56
31
39
16
2
21
23
28
34
26
18
25
5
46
47
6
48
8
13
50
7
27
54

>  <PUBCHEM_MMFF94_PARTIAL_CHARGES>
24
1 -0.43
10 -0.15
11 -0.15
12 -0.15
13 0.63
14 0.63
15 0.28
16 0.28
17 0.28
18 0.28
19 0.15
2 -0.43
20 0.15
21 0.15
22 0.15
3 -0.57
31 0.4
32 0.4
4 -0.57
5 -0.68
6 -0.68
7 0.09
8 0.09
9 -0.15

>  <PUBCHEM_EFFECTIVE_ROTOR_COUNT>
8

>  <PUBCHEM_PHARMACOPHORE_FEATURES>
7
1 3 acceptor
1 4 acceptor
1 5 acceptor
1 5 donor
1 6 acceptor
1 6 donor
6 7 8 9 10 11 12 rings

>  <PUBCHEM_HEAVY_ATOM_COUNT>
18

>  <PUBCHEM_ATOM_DEF_STEREO_COUNT>
0

>  <PUBCHEM_ATOM_UDEF_STEREO_COUNT>
0

>  <PUBCHEM_BOND_DEF_STEREO_COUNT>
0

>  <PUBCHEM_BOND_UDEF_STEREO_COUNT>
0

>  <PUBCHEM_ISOTOPIC_ATOM_COUNT>
0

>  <PUBCHEM_COMPONENT_COUNT>
1

>  <PUBCHEM_CACTVS_TAUTO_COUNT>
1

>  <PUBCHEM_CONFORMER_ID>
000035AB00000001

>  <PUBCHEM_MMFF94_ENERGY>
44.2295

>  <PUBCHEM_FEATURE_SELFOVERLAP>
35.523

>  <PUBCHEM_SHAPE_FINGERPRINT>
10968037 39 18410012152543713039
11089746 13 12540695946557521839
11806522 49 18410009918986535353
12236239 1 18410855447243259972
13533116 47 16660916683113605170
13862211 1 18410006628598832378
14251718 22 18411136939420945249
14251732 16 18410855494493175089
14528608 73 18409733958879929100
14787075 74 18409729560226607264
15196674 1 18338516313804112001
17834072 33 18412824698380719020
19489759 90 14418129604479230181
200 152 18412260623910614371
20645477 70 18199752449496498934
21267235 1 18412550889973548114
221490 88 18263928916185329587
23272321 79 18409451383816681488
23402539 116 18335415751807977061
23402655 69 18339074883518801269
23559900 14 18262797501097503721
34797466 226 17203614826284060588
350125 39 18411983563781164433
3545911 37 18410577275887755602
4325135 7 18410855468718096782
4340502 62 16732706042963078794
4463277 17 18412265021635592889
474 4 17676779746965951636
474229 33 18411136935353240571
5104073 3 18266741281369621474
7062679 117 18341894121495265503

>  <PUBCHEM_SHAPE_MULTIPOLES>
335.22
13.61
1.83
0.69
0
0
-0.08
0
-1.87
0
-0.09
0
0
-0.86

>  <PUBCHEM_SHAPE_SELFOVERLAP>
687.263

>  <PUBCHEM_SHAPE_VOLUME>
192.6

>  <PUBCHEM_COORDINATE_TYPE>
2
5
10

$$$$
13739
 OpenBabel11092011363D

 32 32  0  0  0  0  0  0  0  0999 V2000
    2.6843   -2.2870    0.7769 O   0  0  0  0  0  0  0  0  0  0  0  0
   -3.5178    0.2583   -0.5136 O   0  0  0  0  0  0  0  0  0  0  0  0
    3.6183   -0.5333   -0.3854 O   0  0  0  0  0  0  0  0  0  0  0  0
   -2.9494    2.1624    0.6485 O   0  0  0  0  0  0  0  0  0  0  0  0
    6.1056   -3.5135    1.0229 O   0  0  0  0  0  0  0  0  0  0  0  0
   -5.2885    2.0694   -3.1317 O   0  0  0  0  0  0  0  0  0  0  0  0
    1.2904   -0.5293    0.1305 C   0  0  0  0  0  0  0  0  0  0  0  0
   -1.2905    0.5298    0.1314 C   0  0  0  0  0  0  0  0  0  0  0  0
    0.1866   -1.3821    0.1311 C   0  0  0  0  0  0  0  0  0  0  0  0
   -1.1039   -0.8526    0.1315 C   0  0  0  0  0  0  0  0  0  0  0  0
    1.1037    0.8530    0.1304 C   0  0  0  0  0  0  0  0  0  0  0  0
   -0.1867    1.3826    0.1310 C   0  0  0  0  0  0  0  0  0  0  0  0
    2.6356   -1.0816    0.1313 C   0  0  0  0  0  0  0  0  0  0  0  0
   -2.6356    1.0817    0.1316 C   0  0  0  0  0  0  0  0  0  0  0  0
    3.9173   -2.6274    1.4197 C   0  0  0  0  0  0  0  0  0  0  0  0
   -4.6330    0.8827   -1.1586 C   0  0  0  0  0  0  0  0  0  0  0  0
    4.8862   -3.1599    0.3816 C   0  0  0  0  0  0  0  0  0  0  0  0
   -4.1845    1.4346   -2.4980 C   0  0  0  0  0  0  0  0  0  0  0  0
    0.3104   -2.4619    0.1314 H   0  0  0  0  0  0  0  0  0  0  0  0
   -1.9332   -1.5543    0.1317 H   0  0  0  0  0  0  0  0  0  0  0  0
    1.9330    1.5547    0.1300 H   0  0  0  0  0  0  0  0  0  0  0  0
   -0.3105    2.4624    0.1308 H   0  0  0  0  0  0  0  0  0  0  0  0
    4.3368   -1.7367    1.8998 H   0  0  0  0  0  0  0  0  0  0  0  0
    3.7162   -3.3948    2.1761 H   0  0  0  0  0  0  0  0  0  0  0  0
   -5.4312    0.1470   -1.3043 H   0  0  0  0  0  0  0  0  0  0  0  0
   -4.9914    1.6983   -0.5203 H   0  0  0  0  0  0  0  0  0  0  0  0
    5.0943   -2.4151   -0.3918 H   0  0  0  0  0  0  0  0  0  0  0  0
    4.4913   -4.0645   -0.0902 H   0  0  0  0  0  0  0  0  0  0  0  0
   -3.8220    0.6354   -3.1502 H   0  0  0  0  0  0  0  0  0  0  0  0
   -3.3944    2.1817   -2.3744 H   0  0  0  0  0  0  0  0  0  0  0  0
    6.4687   -2.7071    1.4273 H   0  0  0  0  0  0  0  0  0  0  0  0
   -5.6066    2.7670   -2.5335 H   0  0  0  0  0  0  0  0  0  0  0  0
  1 13  1  0  0  0  0
  1 15  1  0  0  0  0
  2 14  1  0  0  0  0
  2 16  1  0  0  0  0
  3 13  2  0  0  0  0
  4 14  2  0  0  0  0
  5 17  1  0  0  0  0
  5 31  1  0  0  0  0
  6 18  1  0  0  0  0
  6 32  1  0  0  0  0
  7  9  2  0  0  0  0
  7 11  1  0  0  0  0
  7 13  1  0  0  0  0
  8 10  2  0  0  0  0
  8 12  1  0  0  0  0
  8 14  1  0  0  0  0
  9 10  1  0  0  0  0
  9 19  1  0  0  0  0
 10 20  1  0  0  0  0
 11 12  2  0  0  0  0
 11 21  1  0  0  0  0
 12 22  1  0  0  0  0
 15 17  1  0  0  0  0
 15 23  1  0  0  0  0
 15 24  1  0  0  0  0
 16 18  1  0  0  0  0
 16 25  1  0  0  0  0
 16 26  1  0  0  0  0
 17 27  1  0  0  0  0
 17 28  1  0  0  0  0
 18 29  1  0  0  0  0
 18 30  1  0  0  0  0
M  END
>  <PUBCHEM_COMPOUND_CID>
13739

>  <PUBCHEM_CONFORMER_RMSD>
0.8

>  <PUBCHEM_CONFORMER_DIVERSEORDER>
1
57
49
30
42
33
44
14
53
22
19
10
12
45
3
41
11
32
40
15
36
55
29
9
38
4
58
17
37
43
52
24
51
35
20
56
31
39
16
2
21
23
28
34
26
18
25
5
46
47
6
48
8
13
50
7
27
54

>  <PUBCHEM_MMFF94_PARTIAL_CHARGES>
24
1 -0.43
10 -0.15
11 -0.15
12 -0.15
13 0.63
14 0.63
15 0.28
16 0.28
17 0.28
18 0.28
19 0.15
2 -0.43
20 0.15
21 0.15
22 0.15
3 -0.57
31 0.4
32 0.4
4 -0.57
5 -0.68
6 -0.68
7 0.09
8 0.09
9 -0.15

>  <PUBCHEM_EFFECTIVE_ROTOR_COUNT>
8

>  <PUBCHEM_PHARMACOPHORE_FEATURES>
7
1 3 acceptor
1 4 acceptor
1 5 acceptor
1 5 donor
1 6 acceptor
1 6 donor
6 7 8 9 10 11 12 rings

>  <PUBCHEM_HEAVY_ATOM_COUNT>
18

>  <PUBCHEM_ATOM_DEF_STEREO_COUNT>
0

>  <PUBCHEM_ATOM_UDEF_STEREO_COUNT>
0

>  <PUBCHEM_BOND_DEF_STEREO_COUNT>
0

>  <PUBCHEM_BOND_UDEF_STEREO_COUNT>
0

>  <PUBCHEM_ISOTOPIC_ATOM_COUNT>
0

>  <PUBCHEM_COMPONENT_COUNT>
1

>  <PUBCHEM_CACTVS_TAUTO_COUNT>
1

>  <PUBCHEM_CONFORMER_ID>
000035AB00000001

>  <PUBCHEM_MMFF94_ENERGY>
44.2295

>  <PUBCHEM_FEATURE_SELFOVERLAP>
35.523

>  <PUBCHEM_SHAPE_FINGERPRINT>
10968037 39 18410012152543713039
11089746 13 12540695946557521839
11806522 49 18410009918986535353
12236239 1 18410855447243259972
13533116 47 16660916683113605170
13862211 1 18410006628598832378
14251718 22 18411136939420945249
14251732 16 18410855494493175089
14528608 73 18409733958879929100
14787075 74 18409729560226607264
15196674 1 18338516313804112001
17834072 33 18412824698380719020
19489759 90 14418129604479230181
200 152 18412260623910614371
20645477 70 18199752449496498934
21267235 1 18412550889973548114
221490 88 18263928916185329587
23272321 79 18409451383816681488
23402539 116 18335415751807977061
23402655 69 18339074883518801269
23559900 14 18262797501097503721
34797466 226 17203614826284060588
350125 39 18411983563781164433
3545911 37 18410577275887755602
4325135 7 18410855468718096782
4340502 62 16732706042963078794
4463277 17 18412265021635592889
474 4 17676779746965951636
474229 33 18411136935353240571
5104073 3 18266741281369621474
7062679 117 18341894121495265503

>  <PUBCHEM_SHAPE_MULTIPOLES>
335.22
13.61
1.83
0.69
0
0
-0.08
0
-1.87
0
-0.09
0
0
-0.86

>  <PUBCHEM_SHAPE_SELFOVERLAP>
687.263

>  <PUBCHEM_SHAPE_VOLUME>
192.6

>  <PUBCHEM_COORDINATE_TYPE>
2
5
10

$$$$
